<?xml version="1.0" encoding="UTF-8"?>

<!-- generated on 2021-11-16 11:32:31 by Eclipse SUMO duarouter Version 1.10.0
<configuration xmlns:xsi="http://www.w3.org/2001/XMLSchema-instance" xsi:noNamespaceSchemaLocation="http://sumo.dlr.de/xsd/duarouterConfiguration.xsd">

    <input>
        <net-file value="C:\Users\cipri\Sumo\2021-11-16-11-32-21\osm.net.xml"/>
        <route-files value="C:\Users\cipri\Sumo\2021-11-16-11-32-21\osm.pedestrian.trips.xml"/>
    </input>

    <output>
        <output-file value="C:\Users\cipri\Sumo\2021-11-16-11-32-21\osm.pedestrian.rou.xml"/>
        <alternatives-output value="C:\Users\cipri\Sumo\2021-11-16-11-32-21\osm.pedestrian.rou.alt.xml"/>
    </output>

    <time>
        <begin value="0"/>
        <end value="3600"/>
    </time>

    <report>
        <no-warnings value="true"/>
        <ignore-errors value="true"/>
        <no-step-log value="true"/>
    </report>

</configuration>
-->

<routes xmlns:xsi="http://www.w3.org/2001/XMLSchema-instance" xsi:noNamespaceSchemaLocation="http://sumo.dlr.de/xsd/routes_file.xsd">
    <vType id="ped_pedestrian" vClass="pedestrian"/>
    <person id="ped0" type="ped_pedestrian" depart="0.00">
        <walk edges="825847609#1 825847609#0 219926435#3 -219926435#2 -219926435#1"/>
    </person>
    <person id="ped1" type="ped_pedestrian" depart="65.66">
        <walk edges="32983266#1 225435948"/>
    </person>
    <person id="ped2" type="ped_pedestrian" depart="131.33">
        <walk edges="856479757#2 856479754#1 856479755#1"/>
    </person>
    <person id="ped3" type="ped_pedestrian" depart="196.99">
        <walk edges="905469613#2 905469613#1 905469613#0 -219926435#3"/>
    </person>
    <person id="ped4" type="ped_pedestrian" depart="262.66">
        <walk edges="737881982#0 737881982#1 219926435#3 -219926435#2 -219926435#1"/>
    </person>
    <person id="ped5" type="ped_pedestrian" depart="328.32">
        <walk edges="225435948 856479755#1 825847609#1 825847609#0 219926435#3 905469613#0 812930564#0"/>
    </person>
    <person id="ped6" type="ped_pedestrian" depart="393.99">
        <walk edges="-219926435#1 -219926435#2 219926435#3 223253411#2"/>
    </person>
    <person id="ped7" type="ped_pedestrian" depart="459.65">
        <walk edges="825847609#1 825847609#0 665968658#2 905469610 812930564#2"/>
    </person>
    <person id="ped8" type="ped_pedestrian" depart="525.32">
        <walk edges="225435948 856479755#1 825847609#1 825847609#0 665968658#2 665968658#1 812930564#4"/>
    </person>
    <person id="ped9" type="ped_pedestrian" depart="590.98">
        <walk edges="905469611 905469613#1 905469613#0 -219926435#2 -219926435#0"/>
    </person>
    <person id="ped10" type="ped_pedestrian" depart="656.65">
        <walk edges="905469611 812930564#1 905469610 665968658#2 665968659#1 856479756#1"/>
    </person>
    <person id="ped11" type="ped_pedestrian" depart="722.31">
        <walk edges="665968658#0 812930564#4 905469613#3 905469613#2 905469613#1 905469613#0 219926435#2"/>
    </person>
    <person id="ped12" type="ped_pedestrian" depart="787.97">
        <walk edges="964596254#0 856479755#1 825847609#1 825847609#0 665968658#2 665968658#1 665968658#0"/>
    </person>
    <person id="ped13" type="ped_pedestrian" depart="853.64">
        <walk edges="-219926435#3 -219926435#2 219926435#0"/>
    </person>
    <person id="ped14" type="ped_pedestrian" depart="919.30">
        <walk edges="905469613#0 905469613#1 905469613#2 905469613#3 812930564#4"/>
    </person>
    <person id="ped15" type="ped_pedestrian" depart="984.97">
        <walk edges="905469611 812930564#1 905469610 665968658#2 665968659#1 856479757#2"/>
    </person>
    <person id="ped16" type="ped_pedestrian" depart="1050.63">
        <walk edges="812930564#2 905469610 665968658#2 825847609#0 825847609#1 856479755#1 964596254#0"/>
    </person>
    <person id="ped17" type="ped_pedestrian" depart="1116.30">
        <walk edges="665968658#2 905469610 812930564#2"/>
    </person>
    <person id="ped18" type="ped_pedestrian" depart="1181.96">
        <walk edges="905469612 905469613#2 905469613#1 905469613#0 219926435#3 825847609#0"/>
    </person>
    <person id="ped19" type="ped_pedestrian" depart="1247.63">
        <walk edges="905469613#1 905469611 812930564#1 812930564#2 812930564#3"/>
    </person>
    <person id="ped20" type="ped_pedestrian" depart="1313.29">
        <walk edges="856479756#1 665968659#1 219926435#3 -219926435#2 -219926435#1"/>
    </person>
    <person id="ped21" type="ped_pedestrian" depart="1378.96">
        <walk edges="225435948 50584779"/>
    </person>
    <person id="ped22" type="ped_pedestrian" depart="1444.62">
        <walk edges="-219926435#3 23562672#1"/>
    </person>
    <person id="ped23" type="ped_pedestrian" depart="1510.28">
        <walk edges="219926435#0 -219926435#2 219926435#3 825847609#0 825847609#1 856479755#1 32983266#1"/>
    </person>
    <person id="ped24" type="ped_pedestrian" depart="1575.95">
        <walk edges="825847609#1 825847609#0 665968658#2 665968658#1"/>
    </person>
    <person id="ped25" type="ped_pedestrian" depart="1641.61">
        <walk edges="665968658#1 665968658#2 825847609#0 825847609#1 856479755#1 225435948"/>
    </person>
    <person id="ped26" type="ped_pedestrian" depart="1707.28">
        <walk edges="32983266#1 964596253"/>
    </person>
    <person id="ped27" type="ped_pedestrian" depart="1772.94">
        <walk edges="825847609#1 825847609#0"/>
    </person>
    <person id="ped28" type="ped_pedestrian" depart="1838.61">
        <walk edges="219926435#3 665968659#1 856479757#2"/>
    </person>
    <person id="ped29" type="ped_pedestrian" depart="1904.27">
        <walk edges="219926435#3 665968658#2"/>
    </person>
    <person id="ped30" type="ped_pedestrian" depart="1969.94">
        <walk edges="964596254#1 825847609#1"/>
    </person>
    <person id="ped31" type="ped_pedestrian" depart="2035.60">
        <walk edges="812930564#2 905469610 665968658#2 825847609#0 825847609#1 856479755#1"/>
    </person>
    <person id="ped32" type="ped_pedestrian" depart="2101.27">
        <walk edges="905469613#0 812930564#0 812930564#1 905469610"/>
    </person>
    <person id="ped33" type="ped_pedestrian" depart="2166.93">
        <walk edges="225435948 856479755#1 825847609#1 825847609#0 219926435#3 -219926435#2 -219926435#1"/>
    </person>
    <person id="ped34" type="ped_pedestrian" depart="2232.59">
        <walk edges="635271978#1 665968659#1 856479757#2 856479754#1 856479755#1 32983266#1"/>
    </person>
    <person id="ped35" type="ped_pedestrian" depart="2298.26">
        <walk edges="225435948 32983266#1 964596253"/>
    </person>
    <person id="ped36" type="ped_pedestrian" depart="2363.92">
        <walk edges="905469613#1 905469613#0 219926435#3 635271978#1"/>
    </person>
    <person id="ped37" type="ped_pedestrian" depart="2429.59">
        <walk edges="856479754#1 856479757#2 665968659#1"/>
    </person>
    <person id="ped38" type="ped_pedestrian" depart="2495.25">
        <walk edges="905469613#3 905469613#2 905469613#1 905469613#0 219926435#3 737881982#1"/>
    </person>
    <person id="ped39" type="ped_pedestrian" depart="2560.92">
        <walk edges="32983266#1 856479755#1 856479754#1 23562672#1"/>
    </person>
    <person id="ped40" type="ped_pedestrian" depart="2626.58">
        <walk edges="812930564#3 812930564#2 905469610 665968658#2 825847609#0 825847609#1 856479755#1 32983266#1"/>
    </person>
    <person id="ped41" type="ped_pedestrian" depart="2692.25">
        <walk edges="812930564#4 905469613#3 905469613#2"/>
    </person>
    <person id="ped42" type="ped_pedestrian" depart="2757.91">
        <walk edges="665968659#1 856479757#2 856479754#1 856479755#1 225435948"/>
    </person>
    <person id="ped43" type="ped_pedestrian" depart="2823.58">
        <walk edges="964596254#1 825847609#0 219926435#3 905469613#0 812930564#0"/>
    </person>
    <person id="ped44" type="ped_pedestrian" depart="2889.24">
        <walk edges="-219926435#3 -219926435#2"/>
    </person>
    <person id="ped45" type="ped_pedestrian" depart="2954.90">
        <walk edges="219926435#0 -219926435#2 219926435#3 825847609#0"/>
    </person>
    <person id="ped46" type="ped_pedestrian" depart="3020.57">
        <walk edges="905469611 905469613#1 905469613#0 219926435#3 737881982#1 737881982#0"/>
    </person>
    <person id="ped47" type="ped_pedestrian" depart="3086.23">
        <walk edges="-219926435#2 219926435#3 665968658#2"/>
    </person>
    <person id="ped48" type="ped_pedestrian" depart="3151.90">
        <walk edges="964596254#1 825847609#0 219926435#3 905469613#0 812930564#0 812930564#1"/>
    </person>
    <person id="ped49" type="ped_pedestrian" depart="3217.56">
        <walk edges="964596254#0 856479755#1 825847609#1 825847609#0 219926435#3 905469613#0 905469613#1"/>
    </person>
    <person id="ped50" type="ped_pedestrian" depart="3283.23">
        <walk edges="-219926435#0 -219926435#2 219926435#3 665968659#1 856479756#1"/>
    </person>
    <person id="ped51" type="ped_pedestrian" depart="3348.89">
        <walk edges="856479755#1 825847609#1 825847609#0 665968658#2 905469610 812930564#2"/>
    </person>
    <person id="ped52" type="ped_pedestrian" depart="3414.56">
        <walk edges="32983266#1 856479755#1 825847609#1"/>
    </person>
    <person id="ped53" type="ped_pedestrian" depart="3480.22">
        <walk edges="219926435#0 -219926435#2 219926435#3 737881982#1 737881982#0"/>
    </person>
    <person id="ped54" type="ped_pedestrian" depart="3545.89">
        <walk edges="737881982#1 825847609#0 825847609#1 856479755#1 964596254#0"/>
    </person>
</routes>
