<?xml version="1.0" encoding="UTF-8"?>

<!-- generated on 2021-11-16 11:32:30 by Eclipse SUMO netconvert Version 1.10.0
<configuration xmlns:xsi="http://www.w3.org/2001/XMLSchema-instance" xsi:noNamespaceSchemaLocation="http://sumo.dlr.de/xsd/netconvertConfiguration.xsd">

    <input>
        <type-files value="C:\Program%20Files%20(x86)\Eclipse\Sumo\data\typemap\osmNetconvert.typ.xml,C:\Program%20Files%20(x86)\Eclipse\Sumo\data\typemap\osmNetconvertUrbanDe.typ.xml,C:\Program%20Files%20(x86)\Eclipse\Sumo\data\typemap\osmNetconvertPedestrians.typ.xml,C:\Program%20Files%20(x86)\Eclipse\Sumo\data\typemap\osmNetconvertBicycle.typ.xml"/>
        <osm-files value="osm_bbox.osm.xml"/>
    </input>

    <output>
        <output-file value="osm.net.xml"/>
        <output.street-names value="true"/>
        <output.original-names value="true"/>
    </output>

    <projection>
        <proj.utm value="true"/>
    </projection>

    <processing>
        <geometry.remove value="true"/>
        <roundabouts.guess value="true"/>
    </processing>

    <tls_building>
        <tls.discard-simple value="true"/>
        <tls.join value="true"/>
        <tls.guess-signals value="true"/>
        <tls.default-type value="actuated"/>
    </tls_building>

    <ramp_guessing>
        <ramps.guess value="true"/>
    </ramp_guessing>

    <junctions>
        <junctions.join value="true"/>
        <junctions.corner-detail value="5"/>
    </junctions>

    <pedestrian>
        <crossings.guess value="true"/>
    </pedestrian>

    <report>
        <verbose value="true"/>
        <aggregate-warnings value="5"/>
    </report>

</configuration>
-->

<net version="1.9" junctionCornerDetail="5" walkingareas="true" limitTurnSpeed="5.50" xmlns:xsi="http://www.w3.org/2001/XMLSchema-instance" xsi:noNamespaceSchemaLocation="http://sumo.dlr.de/xsd/net_file.xsd">

    <location netOffset="-419689.13,-4920191.11" convBoundary="0.00,0.00,4840.45,425.12" origBoundary="25.990970,44.430560,26.051723,44.434524" projParameter="+proj=utm +zone=35 +ellps=WGS84 +datum=WGS84 +units=m +no_defs"/>

    <type id="cycleway.lane" allow="bicycle" bikeLaneWidth="1.00"/>
    <type id="cycleway.opposite_lane" allow="bicycle" bikeLaneWidth="1.00"/>
    <type id="cycleway.opposite_track" allow="bicycle" bikeLaneWidth="1.50"/>
    <type id="cycleway.track" allow="bicycle" bikeLaneWidth="1.50"/>
    <type id="highway.bridleway" priority="1" numLanes="1" speed="2.78" allow="pedestrian" oneway="1" width="2.00"/>
    <type id="highway.bus_guideway" priority="1" numLanes="1" speed="13.89" allow="bus" oneway="1"/>
    <type id="highway.cycleway" priority="1" numLanes="1" speed="8.33" allow="bicycle" oneway="0" width="1.00"/>
    <type id="highway.footway" priority="1" numLanes="1" speed="2.78" allow="pedestrian" oneway="1" width="2.00"/>
    <type id="highway.ford" priority="1" numLanes="1" speed="2.78" allow="army" oneway="0"/>
    <type id="highway.living_street" priority="2" numLanes="1" speed="2.78" disallow="tram rail_urban rail rail_electric rail_fast ship" oneway="0"/>
    <type id="highway.motorway" priority="14" numLanes="2" speed="27.78" allow="private emergency authority army vip passenger hov taxi bus coach delivery truck trailer motorcycle evehicle custom1 custom2" oneway="1"/>
    <type id="highway.motorway_link" priority="9" numLanes="1" speed="16.67" allow="private emergency authority army vip passenger hov taxi bus coach delivery truck trailer motorcycle evehicle custom1 custom2" oneway="1"/>
    <type id="highway.path" priority="1" numLanes="1" speed="2.78" allow="pedestrian bicycle" oneway="0" width="2.00"/>
    <type id="highway.pedestrian" priority="1" numLanes="1" speed="2.78" allow="pedestrian" oneway="1" width="2.00"/>
    <type id="highway.primary" priority="12" numLanes="2" speed="13.89" disallow="pedestrian tram rail_urban rail rail_electric rail_fast ship" oneway="0" sidewalkWidth="3.00"/>
    <type id="highway.primary_link" priority="7" numLanes="1" speed="13.89" disallow="pedestrian tram rail_urban rail rail_electric rail_fast ship" oneway="0" sidewalkWidth="3.00"/>
    <type id="highway.raceway" priority="15" numLanes="2" speed="83.33" allow="vip" oneway="0"/>
    <type id="highway.residential" priority="3" numLanes="1" speed="13.89" disallow="pedestrian tram rail_urban rail rail_electric rail_fast ship" oneway="0" sidewalkWidth="2.00"/>
    <type id="highway.secondary" priority="11" numLanes="1" speed="13.89" disallow="pedestrian tram rail_urban rail rail_electric rail_fast ship" oneway="0" sidewalkWidth="3.00"/>
    <type id="highway.secondary_link" priority="6" numLanes="1" speed="13.89" disallow="pedestrian tram rail_urban rail rail_electric rail_fast ship" oneway="0" sidewalkWidth="3.00"/>
    <type id="highway.service" priority="1" numLanes="1" speed="5.56" allow="pedestrian delivery bicycle" oneway="0"/>
    <type id="highway.stairs" priority="1" numLanes="1" speed="1.39" allow="pedestrian" oneway="1" width="2.00"/>
    <type id="highway.step" priority="1" numLanes="1" speed="1.39" allow="pedestrian" oneway="1" width="2.00"/>
    <type id="highway.steps" priority="1" numLanes="1" speed="1.39" allow="pedestrian" oneway="1" width="2.00"/>
    <type id="highway.tertiary" priority="10" numLanes="1" speed="13.89" disallow="pedestrian tram rail_urban rail rail_electric rail_fast ship" oneway="0" sidewalkWidth="3.00"/>
    <type id="highway.tertiary_link" priority="5" numLanes="1" speed="13.89" disallow="pedestrian tram rail_urban rail rail_electric rail_fast ship" oneway="0" sidewalkWidth="2.00"/>
    <type id="highway.track" priority="1" numLanes="1" speed="5.56" allow="pedestrian motorcycle moped bicycle" oneway="0"/>
    <type id="highway.trunk" priority="13" numLanes="2" speed="13.89" disallow="pedestrian bicycle tram rail_urban rail rail_electric rail_fast ship" oneway="0"/>
    <type id="highway.trunk_link" priority="8" numLanes="1" speed="13.89" disallow="pedestrian bicycle tram rail_urban rail rail_electric rail_fast ship" oneway="0"/>
    <type id="highway.unclassified" priority="4" numLanes="1" speed="13.89" disallow="pedestrian tram rail_urban rail rail_electric rail_fast ship" oneway="0" sidewalkWidth="2.00"/>
    <type id="highway.unsurfaced" priority="1" numLanes="1" speed="8.33" disallow="tram rail_urban rail rail_electric rail_fast ship" oneway="0"/>
    <type id="railway.highspeed" priority="21" numLanes="1" speed="69.44" allow="rail_fast" oneway="1"/>
    <type id="railway.light_rail" priority="19" numLanes="1" speed="27.78" allow="rail_urban" oneway="1"/>
    <type id="railway.preserved" priority="16" numLanes="1" speed="27.78" allow="rail" oneway="1"/>
    <type id="railway.rail" priority="20" numLanes="1" speed="44.44" allow="rail" oneway="1"/>
    <type id="railway.subway" priority="18" numLanes="1" speed="27.78" allow="rail_urban" oneway="1"/>
    <type id="railway.tram" priority="17" numLanes="1" speed="13.89" allow="tram" oneway="1"/>

    <edge id=":12245960_0" function="internal">
        <lane id=":12245960_0_0" index="0" disallow="pedestrian tram rail_urban rail rail_electric rail_fast ship" speed="16.67" length="5.23" shape="1188.21,340.06 1193.44,339.81"/>
        <lane id=":12245960_0_1" index="1" disallow="pedestrian tram rail_urban rail rail_electric rail_fast ship" speed="16.67" length="5.23" shape="1188.36,343.25 1193.59,343.01"/>
    </edge>
    <edge id=":12245960_c0" function="crossing" crossingEdges="964596254#1">
        <lane id=":12245960_c0_0" index="0" allow="pedestrian" speed="1.00" length="6.40" width="4.00" shape="1191.36,338.31 1191.66,344.70"/>
    </edge>
    <edge id=":12245960_w0" function="walkingarea">
        <lane id=":12245960_w0_0" index="0" allow="pedestrian" speed="1.00" length="1.59" width="4.00" shape="1190.28,346.32 1192.27,346.18 1193.66,344.61 1189.67,344.80"/>
    </edge>
    <edge id=":12245960_w1" function="walkingarea">
        <lane id=":12245960_w1_0" index="0" allow="pedestrian" speed="1.00" length="3.98" width="4.00" shape="1189.37,338.40 1193.36,338.22 1193.22,335.22 1191.38,333.76 1189.39,333.90 1188.00,335.46 1188.14,338.46"/>
    </edge>
    <edge id=":1725252753_0" function="internal">
        <lane id=":1725252753_0_0" index="0" allow="rail_urban" speed="27.78" length="3.01" shape="1106.63,356.62 1103.62,356.64"/>
    </edge>
    <edge id=":2290562869_0" function="internal">
        <lane id=":2290562869_0_0" index="0" allow="pedestrian delivery bicycle" speed="5.56" length="6.25" shape="1220.22,416.59 1220.25,414.73 1220.18,413.40 1219.74,412.22 1218.64,410.80"/>
    </edge>
    <edge id=":2290562869_1" function="internal">
        <lane id=":2290562869_1_0" index="0" allow="pedestrian delivery bicycle" speed="5.56" length="10.19" shape="1220.22,416.59 1220.59,413.82 1221.76,411.84 1223.73,410.65 1226.50,410.25"/>
    </edge>
    <edge id=":2290562869_2" function="internal">
        <lane id=":2290562869_2_0" index="0" allow="pedestrian delivery bicycle" speed="3.65" length="4.67" shape="1220.22,416.59 1221.01,415.39 1221.81,414.98 1222.61,415.37 1223.42,416.57"/>
    </edge>
    <edge id=":2290562869_3" function="internal">
        <lane id=":2290562869_3_0" index="0" allow="pedestrian delivery bicycle" speed="5.03" length="5.01" shape="1226.51,413.45 1225.15,413.65 1224.18,414.23 1223.60,415.21 1223.42,416.57"/>
    </edge>
    <edge id=":2290562869_4" function="internal">
        <lane id=":2290562869_4_0" index="0" allow="pedestrian delivery bicycle" speed="5.56" length="8.53" shape="1226.51,413.45 1223.98,413.29 1221.83,412.79 1220.04,411.96 1218.64,410.80"/>
    </edge>
    <edge id=":2290562869_5" function="internal">
        <lane id=":2290562869_5_0" index="0" allow="pedestrian delivery bicycle" speed="3.65" length="4.67" shape="1226.51,413.45 1225.30,412.65 1224.90,411.85 1225.30,411.05 1226.50,410.25"/>
    </edge>
    <edge id=":2290562869_6" function="internal">
        <lane id=":2290562869_6_0" index="0" allow="pedestrian delivery bicycle" speed="5.56" length="5.89" shape="1220.99,408.63 1221.90,409.34 1223.12,409.85 1224.65,410.15 1226.50,410.25"/>
    </edge>
    <edge id=":2290562869_7" function="internal">
        <lane id=":2290562869_7_0" index="0" allow="pedestrian delivery bicycle" speed="5.56" length="8.63" shape="1220.99,408.63 1222.55,410.58 1223.25,412.19 1223.42,414.01 1223.42,416.57"/>
    </edge>
    <edge id=":2290562869_8" function="internal">
        <lane id=":2290562869_8_0" index="0" allow="pedestrian delivery bicycle" speed="3.65" length="4.67" shape="1220.99,408.63 1221.22,410.06 1220.90,410.90 1220.04,411.14 1218.64,410.80"/>
    </edge>
    <edge id=":2290562869_w0" function="walkingarea">
        <lane id=":2290562869_w0_0" index="0" allow="pedestrian" speed="1.00" length="6.40" width="3.20" shape="1218.62,416.60 1221.82,416.58 1221.82,416.58 1225.02,416.55 1226.51,415.05 1226.50,411.85 1226.50,411.85 1226.50,408.65 1222.17,407.55 1219.81,409.72 1219.81,409.72 1217.46,411.88 1218.64,415.53 1218.68,414.70 1218.65,414.00 1218.49,413.36 1218.11,412.69"/>
    </edge>
    <edge id=":371544332_0" function="internal">
        <lane id=":371544332_0_0" index="0" disallow="pedestrian tram rail_urban rail rail_electric rail_fast ship" speed="11.11" length="24.25" shape="1185.56,297.07 1185.85,290.64 1185.64,285.50 1184.18,280.35 1180.71,273.91"/>
    </edge>
    <edge id=":371544332_1" function="internal">
        <lane id=":371544332_1_0" index="0" disallow="pedestrian tram rail_urban rail rail_electric rail_fast ship" speed="13.89" length="23.42" shape="1192.72,293.98 1180.71,273.91"/>
        <lane id=":371544332_1_1" index="1" disallow="pedestrian tram rail_urban rail rail_electric rail_fast ship" speed="13.89" length="23.42" shape="1195.47,292.33 1183.42,272.21"/>
    </edge>
    <edge id=":371544332_c0" function="crossing" crossingEdges="32983266#1">
        <lane id=":371544332_c0_0" index="0" allow="pedestrian" speed="1.00" length="3.20" width="4.00" shape="1187.24,295.13 1184.04,295.01"/>
    </edge>
    <edge id=":371544332_w0" function="walkingarea">
        <lane id=":371544332_w0_0" index="0" allow="pedestrian" speed="1.00" length="15.18" width="4.00" shape="1179.36,274.76 1176.81,276.35 1180.95,297.37 1183.95,297.49 1183.96,297.00 1184.20,292.08 1184.31,288.33 1184.09,285.23 1183.33,282.28 1181.82,278.96"/>
    </edge>
    <edge id=":371544332_w1" function="walkingarea">
        <lane id=":371544332_w1_0" index="0" allow="pedestrian" speed="1.00" length="2.86" width="4.00" shape="1187.16,297.13 1188.77,296.34 1191.35,294.81 1190.16,293.07 1189.17,292.18 1188.38,292.15 1187.78,292.96 1187.37,294.62"/>
    </edge>
    <edge id=":6909166659_w0" function="walkingarea">
        <lane id=":6909166659_w0_0" index="0" allow="pedestrian" speed="1.00" length="4.66" width="2.00" shape="1160.66,366.98 1160.62,364.98 1155.01,364.91 1154.95,366.91 1155.42,368.04 1156.86,369.42 1159.70,367.06 1159.02,367.27 1158.50,367.61 1158.04,368.07 1157.53,368.67"/>
    </edge>
    <edge id=":6909166665_w0" function="walkingarea">
        <lane id=":6909166665_w0_0" index="0" allow="pedestrian" speed="1.00" length="4.05" width="2.00" shape="1189.38,333.76 1191.37,333.62 1192.77,332.10 1192.74,330.10 1187.66,330.27 1187.77,332.27 1189.31,333.26 1189.17,332.87 1188.96,332.58 1188.66,332.39 1188.26,332.28"/>
    </edge>
    <edge id=":7593194940_0" function="internal">
        <lane id=":7593194940_0_0" index="0" disallow="pedestrian tram rail_urban rail rail_electric rail_fast ship" speed="16.67" length="5.18" shape="1327.40,359.84 1322.31,359.82"/>
        <lane id=":7593194940_0_1" index="1" disallow="pedestrian tram rail_urban rail rail_electric rail_fast ship" speed="16.67" length="5.18" shape="1327.44,356.64 1322.29,356.62"/>
        <lane id=":7593194940_0_2" index="2" disallow="pedestrian tram rail_urban rail rail_electric rail_fast ship" speed="16.67" length="5.18" shape="1327.48,353.44 1322.27,353.42"/>
        <lane id=":7593194940_0_3" index="3" disallow="pedestrian tram rail_urban rail rail_electric rail_fast ship" speed="16.67" length="5.18" shape="1327.52,350.24 1322.24,350.22"/>
    </edge>
    <edge id=":7593194940_w0" function="walkingarea">
        <lane id=":7593194940_w0_0" index="0" allow="pedestrian" speed="1.00" length="4.28" width="3.00" shape="1322.32,361.42 1322.34,364.42 1323.82,365.91 1325.82,365.93 1327.34,364.44 1327.38,361.44"/>
    </edge>
    <edge id=":7985737185_w0" function="walkingarea">
        <lane id=":7985737185_w0_0" index="0" allow="pedestrian" speed="1.00" length="2.83" width="2.00" shape="1244.22,328.55 1246.22,328.54 1247.72,328.81 1247.73,326.81 1244.16,326.32 1243.44,328.19 1244.19,328.39 1244.11,328.30 1243.98,328.27 1243.82,328.25 1243.64,328.24"/>
    </edge>
    <edge id=":8408799684_w0" function="walkingarea">
        <lane id=":8408799684_w0_0" index="0" allow="pedestrian" speed="1.00" length="4.02" width="2.00" shape="1266.03,398.65 1266.03,396.65 1264.53,395.15 1262.53,395.15 1261.03,396.66 1261.03,398.66"/>
    </edge>
    <edge id=":8408799685_0" function="internal">
        <lane id=":8408799685_0_0" index="0" disallow="pedestrian tram rail_urban rail rail_electric rail_fast ship" speed="16.67" length="5.08" shape="1266.09,360.09 1261.05,360.10"/>
        <lane id=":8408799685_0_1" index="1" disallow="pedestrian tram rail_urban rail rail_electric rail_fast ship" speed="16.67" length="5.08" shape="1266.10,356.89 1261.03,356.90"/>
        <lane id=":8408799685_0_2" index="2" disallow="pedestrian tram rail_urban rail rail_electric rail_fast ship" speed="16.67" length="5.08" shape="1266.10,353.69 1261.01,353.70"/>
        <lane id=":8408799685_0_3" index="3" disallow="pedestrian tram rail_urban rail rail_electric rail_fast ship" speed="16.67" length="5.08" shape="1266.11,350.49 1260.99,350.50"/>
    </edge>
    <edge id=":8408799685_w0" function="walkingarea">
        <lane id=":8408799685_w0_0" index="0" allow="pedestrian" speed="1.00" length="4.28" width="3.00" shape="1261.06,361.70 1261.08,364.70 1262.58,366.19 1264.58,366.19 1266.08,364.69 1266.09,361.69"/>
    </edge>
    <edge id=":8408799686_w0" function="walkingarea">
        <lane id=":8408799686_w0_0" index="0" allow="pedestrian" speed="1.00" length="4.02" width="2.00" shape="1258.28,398.66 1258.27,396.66 1256.77,395.16 1254.77,395.16 1253.27,396.66 1253.27,398.66"/>
    </edge>
    <edge id=":8408799687_w0" function="walkingarea">
        <lane id=":8408799687_w0_0" index="0" allow="pedestrian" speed="1.00" length="4.03" width="2.00" shape="1254.77,376.98 1256.77,376.98 1258.27,375.49 1258.28,373.49 1253.28,373.46 1253.27,375.46 1254.73,376.50 1254.62,376.11 1254.42,375.82 1254.13,375.62 1253.75,375.50"/>
    </edge>
    <edge id=":8408799688_w0" function="walkingarea">
        <lane id=":8408799688_w0_0" index="0" allow="pedestrian" speed="1.00" length="4.03" width="2.00" shape="1274.57,398.65 1274.57,396.65 1273.08,395.15 1271.08,395.14 1269.57,396.65 1269.57,398.65"/>
    </edge>
    <edge id=":8408799689_w0" function="walkingarea">
        <lane id=":8408799689_w0_0" index="0" allow="pedestrian" speed="1.00" length="4.02" width="2.00" shape="1274.68,375.58 1274.69,373.58 1269.69,373.55 1269.68,375.55 1271.17,377.06 1273.17,377.07 1274.20,375.61 1273.82,375.73 1273.53,375.92 1273.33,376.21 1273.21,376.59"/>
    </edge>
    <edge id=":8408799690_w0" function="walkingarea">
        <lane id=":8408799690_w0_0" index="0" allow="pedestrian" speed="1.00" length="4.03" width="2.00" shape="1229.86,376.82 1231.86,376.82 1233.36,375.33 1233.37,373.33 1228.37,373.29 1228.36,375.29 1229.82,376.34 1229.71,375.95 1229.51,375.66 1229.22,375.45 1228.84,375.33"/>
    </edge>
    <edge id=":8408799691_0" function="internal">
        <lane id=":8408799691_0_0" index="0" allow="pedestrian delivery bicycle" speed="5.56" length="5.00" shape="1203.72,376.71 1203.67,371.71"/>
    </edge>
    <edge id=":8408799691_1" function="internal">
        <lane id=":8408799691_1_0" index="0" allow="pedestrian delivery bicycle" speed="3.65" length="4.67" shape="1203.72,376.71 1204.51,375.50 1205.30,375.09 1206.11,375.49 1206.92,376.68"/>
    </edge>
    <edge id=":8408799691_2" function="internal">
        <lane id=":8408799691_2_0" index="0" allow="pedestrian delivery bicycle" speed="5.56" length="5.00" shape="1206.87,371.68 1206.92,376.68"/>
    </edge>
    <edge id=":8408799691_3" function="internal">
        <lane id=":8408799691_3_0" index="0" allow="pedestrian delivery bicycle" speed="3.65" length="4.67" shape="1206.87,371.68 1206.08,372.89 1205.29,373.29 1204.48,372.90 1203.67,371.71"/>
    </edge>
    <edge id=":8408799691_w0" function="walkingarea">
        <lane id=":8408799691_w0_0" index="0" allow="pedestrian" speed="1.00" length="4.98" width="3.20" shape="1202.12,376.72 1205.32,376.69 1205.32,376.69 1208.52,376.66 1210.00,375.17 1210.02,373.17 1208.47,371.66 1205.27,371.69 1205.27,371.69 1202.07,371.72"/>
    </edge>
    <edge id=":8408799692_w0" function="walkingarea">
        <lane id=":8408799692_w0_0" index="0" allow="pedestrian" speed="1.00" length="4.03" width="2.00" shape="1325.75,372.39 1323.75,372.36 1322.23,373.86 1322.21,375.86 1323.70,377.36 1325.70,377.39"/>
    </edge>
    <edge id=":8408799694_0" function="internal">
        <lane id=":8408799694_0_0" index="0" allow="pedestrian delivery bicycle" speed="5.56" length="12.42" shape="1268.97,418.72 1270.85,422.05 1270.84,424.44 1268.95,425.88 1265.16,426.39"/>
    </edge>
    <edge id=":8408799694_1" function="internal">
        <lane id=":8408799694_1_0" index="0" allow="pedestrian delivery bicycle" speed="4.02" length="4.14" shape="1265.13,423.19 1266.39,423.02 1267.03,422.54 1267.03,421.74 1266.40,420.63"/>
    </edge>
    <edge id=":8408799694_w0" function="walkingarea">
        <lane id=":8408799694_w0_0" index="0" allow="pedestrian" speed="1.00" length="4.93" width="3.20" shape="1270.25,417.77 1267.69,419.68 1267.69,419.68 1265.12,421.59 1265.12,421.59 1265.14,424.79 1265.14,424.79 1265.17,427.99 1272.21,420.86 1273.04,423.40 1272.75,425.39 1271.34,426.81 1268.82,427.68"/>
    </edge>
    <edge id=":cluster_1588742342_198996470_2290562907_2342125588_255148001_255148002_255148341_4255730120_6234723343_6553967459_0" function="internal">
        <lane id=":cluster_1588742342_198996470_2290562907_2342125588_255148001_255148002_255148341_4255730120_6234723343_6553967459_0_0" index="0" allow="delivery bicycle" speed="10.21" length="19.57" shape="1203.63,367.58 1202.33,364.23 1198.50,361.84 1192.13,360.40 1187.21,360.13"/>
    </edge>
    <edge id=":cluster_1588742342_198996470_2290562907_2342125588_255148001_255148002_255148341_4255730120_6234723343_6553967459_1" function="internal">
        <lane id=":cluster_1588742342_198996470_2290562907_2342125588_255148001_255148002_255148341_4255730120_6234723343_6553967459_1_0" index="0" allow="pedestrian delivery bicycle" speed="3.71" length="3.27" shape="1203.63,367.58 1204.04,366.12 1204.70,365.46 1205.51,365.58"/>
    </edge>
    <edge id=":cluster_1588742342_198996470_2290562907_2342125588_255148001_255148002_255148341_4255730120_6234723343_6553967459_18" function="internal">
        <lane id=":cluster_1588742342_198996470_2290562907_2342125588_255148001_255148002_255148341_4255730120_6234723343_6553967459_18_0" index="0" allow="delivery bicycle" speed="10.21" length="3.99" shape="1187.21,360.13 1183.22,359.91"/>
    </edge>
    <edge id=":cluster_1588742342_198996470_2290562907_2342125588_255148001_255148002_255148341_4255730120_6234723343_6553967459_19" function="internal">
        <lane id=":cluster_1588742342_198996470_2290562907_2342125588_255148001_255148002_255148341_4255730120_6234723343_6553967459_19_0" index="0" allow="pedestrian delivery bicycle" speed="3.71" length="1.64" shape="1205.51,365.58 1205.63,365.60 1206.83,366.53"/>
    </edge>
    <edge id=":cluster_1588742342_198996470_2290562907_2342125588_255148001_255148002_255148341_4255730120_6234723343_6553967459_2" function="internal">
        <lane id=":cluster_1588742342_198996470_2290562907_2342125588_255148001_255148002_255148341_4255730120_6234723343_6553967459_2_0" index="0" allow="rail_urban" speed="27.78" length="23.50" shape="1206.66,356.75 1183.15,356.71"/>
    </edge>
    <edge id=":cluster_1588742342_198996470_2290562907_2342125588_255148001_255148002_255148341_4255730120_6234723343_6553967459_3" function="internal">
        <lane id=":cluster_1588742342_198996470_2290562907_2342125588_255148001_255148002_255148341_4255730120_6234723343_6553967459_3_0" index="0" allow="delivery bicycle" speed="11.11" length="42.35" shape="1247.71,360.18 1229.80,360.67 1217.02,361.89 1209.36,363.84 1206.83,366.53"/>
    </edge>
    <edge id=":cluster_1588742342_198996470_2290562907_2342125588_255148001_255148002_255148341_4255730120_6234723343_6553967459_4" function="internal">
        <lane id=":cluster_1588742342_198996470_2290562907_2342125588_255148001_255148002_255148341_4255730120_6234723343_6553967459_4_0" index="0" disallow="pedestrian tram rail_urban rail rail_electric rail_fast ship" speed="16.67" length="64.56" shape="1247.71,360.18 1183.22,359.91"/>
        <lane id=":cluster_1588742342_198996470_2290562907_2342125588_255148001_255148002_255148341_4255730120_6234723343_6553967459_4_1" index="1" disallow="pedestrian tram rail_urban rail rail_electric rail_fast ship" speed="16.67" length="64.56" shape="1247.71,356.98 1183.15,356.71"/>
        <lane id=":cluster_1588742342_198996470_2290562907_2342125588_255148001_255148002_255148341_4255730120_6234723343_6553967459_4_2" index="2" disallow="pedestrian tram rail_urban rail rail_electric rail_fast ship" speed="16.67" length="64.56" shape="1247.72,353.78 1183.09,353.51"/>
    </edge>
    <edge id=":cluster_1588742342_198996470_2290562907_2342125588_255148001_255148002_255148341_4255730120_6234723343_6553967459_7" function="internal">
        <lane id=":cluster_1588742342_198996470_2290562907_2342125588_255148001_255148002_255148341_4255730120_6234723343_6553967459_7_0" index="0" disallow="pedestrian tram rail_urban rail rail_electric rail_fast ship" speed="15.28" length="18.50" shape="1247.72,350.58 1239.06,349.00 1230.66,344.14"/>
    </edge>
    <edge id=":cluster_1588742342_198996470_2290562907_2342125588_255148001_255148002_255148341_4255730120_6234723343_6553967459_8" function="internal">
        <lane id=":cluster_1588742342_198996470_2290562907_2342125588_255148001_255148002_255148341_4255730120_6234723343_6553967459_8_0" index="0" disallow="pedestrian tram rail_urban rail rail_electric rail_fast ship" speed="5.14" length="8.64" shape="1247.72,350.58 1244.77,348.61 1243.79,346.64 1244.78,344.67 1245.36,344.29"/>
    </edge>
    <edge id=":cluster_1588742342_198996470_2290562907_2342125588_255148001_255148002_255148341_4255730120_6234723343_6553967459_20" function="internal">
        <lane id=":cluster_1588742342_198996470_2290562907_2342125588_255148001_255148002_255148341_4255730120_6234723343_6553967459_20_0" index="0" disallow="pedestrian tram rail_urban rail rail_electric rail_fast ship" speed="15.28" length="25.35" shape="1230.66,344.14 1222.53,336.02 1214.65,324.62"/>
    </edge>
    <edge id=":cluster_1588742342_198996470_2290562907_2342125588_255148001_255148002_255148341_4255730120_6234723343_6553967459_21" function="internal">
        <lane id=":cluster_1588742342_198996470_2290562907_2342125588_255148001_255148002_255148341_4255730120_6234723343_6553967459_21_0" index="0" disallow="pedestrian tram rail_urban rail rail_electric rail_fast ship" speed="5.14" length="2.85" shape="1245.36,344.29 1247.73,342.71"/>
    </edge>
    <edge id=":cluster_1588742342_198996470_2290562907_2342125588_255148001_255148002_255148341_4255730120_6234723343_6553967459_9" function="internal">
        <lane id=":cluster_1588742342_198996470_2290562907_2342125588_255148001_255148002_255148341_4255730120_6234723343_6553967459_9_0" index="0" disallow="pedestrian tram rail_urban rail rail_electric rail_fast ship" speed="15.05" length="26.14" shape="1224.67,318.67 1230.25,326.38 1235.95,331.89 1241.78,335.20 1243.74,335.57"/>
    </edge>
    <edge id=":cluster_1588742342_198996470_2290562907_2342125588_255148001_255148002_255148341_4255730120_6234723343_6553967459_10" function="internal">
        <lane id=":cluster_1588742342_198996470_2290562907_2342125588_255148001_255148002_255148341_4255730120_6234723343_6553967459_10_0" index="0" allow="delivery bicycle" speed="9.72" length="52.40" shape="1224.67,318.67 1225.23,330.81 1218.71,345.50 1210.71,358.73 1206.83,366.53"/>
    </edge>
    <edge id=":cluster_1588742342_198996470_2290562907_2342125588_255148001_255148002_255148341_4255730120_6234723343_6553967459_11" function="internal">
        <lane id=":cluster_1588742342_198996470_2290562907_2342125588_255148001_255148002_255148341_4255730120_6234723343_6553967459_11_0" index="0" disallow="pedestrian tram rail_urban rail rail_electric rail_fast ship" speed="14.03" length="61.36" shape="1221.92,320.31 1226.19,335.65 1218.79,345.94 1203.24,351.72 1187.14,353.15"/>
    </edge>
    <edge id=":cluster_1588742342_198996470_2290562907_2342125588_255148001_255148002_255148341_4255730120_6234723343_6553967459_12" function="internal">
        <lane id=":cluster_1588742342_198996470_2290562907_2342125588_255148001_255148002_255148341_4255730120_6234723343_6553967459_12_0" index="0" disallow="pedestrian tram rail_urban rail rail_electric rail_fast ship" speed="5.31" length="12.34" shape="1221.92,320.31 1221.72,324.11 1220.44,326.10 1218.09,326.27 1214.65,324.62"/>
    </edge>
    <edge id=":cluster_1588742342_198996470_2290562907_2342125588_255148001_255148002_255148341_4255730120_6234723343_6553967459_22" function="internal">
        <lane id=":cluster_1588742342_198996470_2290562907_2342125588_255148001_255148002_255148341_4255730120_6234723343_6553967459_22_0" index="0" disallow="pedestrian tram rail_urban rail rail_electric rail_fast ship" speed="15.05" length="4.07" shape="1243.74,335.57 1247.74,336.31"/>
    </edge>
    <edge id=":cluster_1588742342_198996470_2290562907_2342125588_255148001_255148002_255148341_4255730120_6234723343_6553967459_23" function="internal">
        <lane id=":cluster_1588742342_198996470_2290562907_2342125588_255148001_255148002_255148341_4255730120_6234723343_6553967459_23_0" index="0" disallow="pedestrian tram rail_urban rail rail_electric rail_fast ship" speed="14.03" length="4.07" shape="1187.14,353.15 1183.09,353.51"/>
    </edge>
    <edge id=":cluster_1588742342_198996470_2290562907_2342125588_255148001_255148002_255148341_4255730120_6234723343_6553967459_13" function="internal">
        <lane id=":cluster_1588742342_198996470_2290562907_2342125588_255148001_255148002_255148341_4255730120_6234723343_6553967459_13_0" index="0" disallow="pedestrian tram rail_urban rail rail_electric rail_fast ship" speed="7.72" length="13.99" shape="1207.61,339.14 1212.23,338.13 1214.49,335.64 1214.38,331.68 1213.57,329.92"/>
    </edge>
    <edge id=":cluster_1588742342_198996470_2290562907_2342125588_255148001_255148002_255148341_4255730120_6234723343_6553967459_14" function="internal">
        <lane id=":cluster_1588742342_198996470_2290562907_2342125588_255148001_255148002_255148341_4255730120_6234723343_6553967459_14_0" index="0" disallow="pedestrian tram rail_urban rail rail_electric rail_fast ship" speed="16.67" length="40.06" shape="1207.61,339.14 1247.74,339.51"/>
        <lane id=":cluster_1588742342_198996470_2290562907_2342125588_255148001_255148002_255148341_4255730120_6234723343_6553967459_14_1" index="1" disallow="pedestrian tram rail_urban rail rail_electric rail_fast ship" speed="16.67" length="40.06" shape="1207.74,342.34 1247.73,342.71"/>
    </edge>
    <edge id=":cluster_1588742342_198996470_2290562907_2342125588_255148001_255148002_255148341_4255730120_6234723343_6553967459_16" function="internal">