<?xml version="1.0" encoding="UTF-8"?>
<!-- generated on 2021-11-16 11:32:31.779559 by $Id$ v1_10_0+0000-83496a5972
  options: 
-->
<routes xmlns:xsi="http://www.w3.org/2001/XMLSchema-instance" xsi:noNamespaceSchemaLocation="http://sumo.dlr.de/xsd/routes_file.xsd">
    <vType id="ped_pedestrian" vClass="pedestrian"/>
    <person id="ped0" depart="0.00" type="ped_pedestrian">
        <walk from="825847609#1" to="-219926435#1"/>
    </person>
    <person id="ped1" depart="65.66" type="ped_pedestrian">
        <walk from="32983266#1" to="225435948"/>
    </person>
    <person id="ped2" depart="131.33" type="ped_pedestrian">
        <walk from="856479757#2" to="856479755#1"/>
    </person>
    <person id="ped3" depart="196.99" type="ped_pedestrian">
        <walk from="905469613#2" to="-219926435#3"/>
    </person>
    <person id="ped4" depart="262.66" type="ped_pedestrian">
        <walk from="737881982#0" to="-219926435#1"/>
    </person>
    <person id="ped5" depart="328.32" type="ped_pedestrian">
        <walk from="225435948" to="812930564#0"/>
    </person>
    <person id="ped6" depart="393.99" type="ped_pedestrian">
        <walk from="-219926435#1" to="223253411#2"/>
    </person>
    <person id="ped7" depart="459.65" type="ped_pedestrian">
        <walk from="825847609#1" to="812930564#2"/>
    </person>
    <person id="ped8" depart="525.32" type="ped_pedestrian">
        <walk from="225435948" to="812930564#4"/>
    </person>
    <person id="ped9" depart="590.98" type="ped_pedestrian">
        <walk from="905469611" to="-219926435#0"/>
    </person>
    <person id="ped10" depart="656.65" type="ped_pedestrian">
        <walk from="905469611" to="856479756#1"/>
    </person>
    <person id="ped11" depart="722.31" type="ped_pedestrian">
        <walk from="665968658#0" to="219926435#2"/>
    </person>
    <person id="ped12" depart="787.97" type="ped_pedestrian">
        <walk from="964596254#0" to="665968658#0"/>
    </person>
    <person id="ped13" depart="853.64" type="ped_pedestrian">
        <walk from="-219926435#3" to="219926435#0"/>
    </person>
    <person id="ped14" depart="919.30" type="ped_pedestrian">
        <walk from="905469613#0" to="812930564#4"/>
    </person>
    <person id="ped15" depart="984.97" type="ped_pedestrian">
        <walk from="905469611" to="856479757#2"/>
    </person>
    <person id="ped16" depart="1050.63" type="ped_pedestrian">
        <walk from="812930564#2" to="964596254#0"/>
    </person>
    <person id="ped17" depart="1116.30" type="ped_pedestrian">
        <walk from="665968658#2" to="812930564#2"/>
    </person>
    <person id="ped18" depart="1181.96" type="ped_pedestrian">
        <walk from="905469612" to="825847609#0"/>
    </person>
    <person id="ped19" depart="1247.63" type="ped_pedestrian">
        <walk from="905469613#1" to="812930564#3"/>
    </person>
    <person id="ped20" depart="1313.29" type="ped_pedestrian">
        <walk from="856479756#1" to="-219926435#1"/>
    </person>
    <person id="ped21" depart="1378.96" type="ped_pedestrian">
        <walk from="225435948" to="50584779"/>
    </person>
    <person id="ped22" depart="1444.62" type="ped_pedestrian">
        <walk from="-219926435#3" to="23562672#1"/>
    </person>
    <person id="ped23" depart="1510.28" type="ped_pedestrian">
        <walk from="219926435#0" to="32983266#1"/>
    </person>
    <person id="ped24" depart="1575.95" type="ped_pedestrian">
        <walk from="825847609#1" to="665968658#1"/>
    </person>
    <person id="ped25" depart="1641.61" type="ped_pedestrian">
        <walk from="665968658#1" to="225435948"/>
    </person>
    <person id="ped26" depart="1707.28" type="ped_pedestrian">
        <walk from="32983266#1" to="964596253"/>
    </person>
    <person id="ped27" depart="1772.94" type="ped_pedestrian">
        <walk from="825847609#1" to="825847609#0"/>
    </person>
    <person id="ped28" depart="1838.61" type="ped_pedestrian">
        <walk from="219926435#3" to="856479757#2"/>
    </person>
    <person id="ped29" depart="1904.27" type="ped_pedestrian">
        <walk from="219926435#3" to="665968658#2"/>
    </person>
    <person id="ped30" depart="1969.94" type="ped_pedestrian">
        <walk from="964596254#1" to="825847609#1"/>
    </person>
    <person id="ped31" depart="2035.60" type="ped_pedestrian">
        <walk from="812930564#2" to="856479755#1"/>
    </person>
    <person id="ped32" depart="2101.27" type="ped_pedestrian">
        <walk from="905469613#0" to="905469610"/>
    </person>
    <person id="ped33" depart="2166.93" type="ped_pedestrian">
        <walk from="225435948" to="-219926435#1"/>
    </person>
    <person id="ped34" depart="2232.59" type="ped_pedestrian">
        <walk from="635271978#1" to="32983266#1"/>
    </person>
    <person id="ped35" depart="2298.26" type="ped_pedestrian">
        <walk from="225435948" to="964596253"/>
    </person>
    <person id="ped36" depart="2363.92" type="ped_pedestrian">
        <walk from="905469613#1" to="635271978#1"/>
    </person>
    <person id="ped37" depart="2429.59" type="ped_pedestrian">
        <walk from="856479754#1" to="665968659#1"/>
    </person>
    <person id="ped38" depart="2495.25" type="ped_pedestrian">
        <walk from="905469613#3" to="737881982#1"/>
    </person>
    <person id="ped39" depart="2560.92" type="ped_pedestrian">
        <walk from="32983266#1" to="23562672#1"/>
    </person>
    <person id="ped40" depart="2626.58" type="ped_pedestrian">
        <walk from="812930564#3" to="32983266#1"/>
    </person>
    <person id="ped41" depart="2692.25" type="ped_pedestrian">
        <walk from="812930564#4" to="905469613#2"/>
    </person>
    <person id="ped42" depart="2757.91" type="ped_pedestrian">
        <walk from="665968659#1" to="225435948"/>
    </person>
    <person id="ped43" depart="2823.58" type="ped_pedestrian">
        <walk from="964596254#1" to="812930564#0"/>
    </person>
    <person id="ped44" depart="2889.24" type="ped_pedestrian">
        <walk from="-219926435#3" to="-219926435#2"/>
    </person>
    <person id="ped45" depart="2954.90" type="ped_pedestrian">
        <walk from="219926435#0" to="825847609#0"/>
    </person>
    <person id="ped46" depart="3020.57" type="ped_pedestrian">
        <walk from="905469611" to="737881982#0"/>
    </person>
    <person id="ped47" depart="3086.23" type="ped_pedestrian">
        <walk from="-219926435#2" to="665968658#2"/>
    </person>
    <person id="ped48" depart="3151.90" type="ped_pedestrian">
        <walk from="964596254#1" to="812930564#1"/>
    </person>
    <person id="ped49" depart="3217.56" type="ped_pedestrian">
        <walk from="964596254#0" to="905469613#1"/>
    </person>
    <person id="ped50" depart="3283.23" type="ped_pedestrian">
        <walk from="-219926435#0" to="856479756#1"/>
    </person>
    <person id="ped51" depart="3348.89" type="ped_pedestrian">
        <walk from="856479755#1" to="812930564#2"/>
    </person>
    <person id="ped52" depart="3414.56" type="ped_pedestrian">
        <walk from="32983266#1" to="825847609#1"/>
    </person>
    <person id="ped53" depart="3480.22" type="ped_pedestrian">
        <walk from="219926435#0" to="737881982#0"/>
    </person>
    <person id="ped54" depart="3545.89" type="ped_pedestrian">
        <walk from="737881982#1" to="964596254#0"/>
    </person>
</routes>
