<?xml version="1.0" encoding="UTF-8"?>

<!-- generated on 2021-11-16 11:39:03 by Eclipse SUMO netconvert Version 1.10.0
<configuration xmlns:xsi="http://www.w3.org/2001/XMLSchema-instance" xsi:noNamespaceSchemaLocation="http://sumo.dlr.de/xsd/netconvertConfiguration.xsd">

    <input>
        <type-files value="C:\Program%20Files%20(x86)\Eclipse\Sumo\data\typemap\osmNetconvert.typ.xml,C:\Program%20Files%20(x86)\Eclipse\Sumo\data\typemap\osmNetconvertUrbanDe.typ.xml,C:\Program%20Files%20(x86)\Eclipse\Sumo\data\typemap\osmNetconvertPedestrians.typ.xml,C:\Program%20Files%20(x86)\Eclipse\Sumo\data\typemap\osmNetconvertBicycle.typ.xml"/>
        <osm-files value="osm_bbox.osm.xml"/>
    </input>

    <output>
        <output-file value="osm.net.xml"/>
        <output.street-names value="true"/>
        <output.original-names value="true"/>
    </output>

    <projection>
        <proj.utm value="true"/>
    </projection>

    <processing>
        <geometry.remove value="true"/>
        <roundabouts.guess value="true"/>
    </processing>

    <tls_building>
        <tls.discard-simple value="true"/>
        <tls.join value="true"/>
        <tls.guess-signals value="true"/>
        <tls.default-type value="actuated"/>
    </tls_building>

    <ramp_guessing>
        <ramps.guess value="true"/>
    </ramp_guessing>

    <junctions>
        <junctions.join value="true"/>
        <junctions.corner-detail value="5"/>
    </junctions>

    <pedestrian>
        <crossings.guess value="true"/>
    </pedestrian>

    <report>
        <verbose value="true"/>
        <aggregate-warnings value="5"/>
    </report>

</configuration>
-->

<net version="1.9" junctionCornerDetail="5" walkingareas="true" limitTurnSpeed="5.50" xmlns:xsi="http://www.w3.org/2001/XMLSchema-instance" xsi:noNamespaceSchemaLocation="http://sumo.dlr.de/xsd/net_file.xsd">

    <location netOffset="-427289.38,-4920833.36" convBoundary="0.00,0.00,904.64,1639.56" origBoundary="26.086143,44.437236,26.097723,44.451904" projParameter="+proj=utm +zone=35 +ellps=WGS84 +datum=WGS84 +units=m +no_defs"/>

    <type id="cycleway.lane" allow="bicycle" bikeLaneWidth="1.00"/>
    <type id="cycleway.opposite_lane" allow="bicycle" bikeLaneWidth="1.00"/>
    <type id="cycleway.opposite_track" allow="bicycle" bikeLaneWidth="1.50"/>
    <type id="cycleway.track" allow="bicycle" bikeLaneWidth="1.50"/>
    <type id="highway.bridleway" priority="1" numLanes="1" speed="2.78" allow="pedestrian" oneway="1" width="2.00"/>
    <type id="highway.bus_guideway" priority="1" numLanes="1" speed="13.89" allow="bus" oneway="1"/>
    <type id="highway.cycleway" priority="1" numLanes="1" speed="8.33" allow="bicycle" oneway="0" width="1.00"/>
    <type id="highway.footway" priority="1" numLanes="1" speed="2.78" allow="pedestrian" oneway="1" width="2.00"/>
    <type id="highway.ford" priority="1" numLanes="1" speed="2.78" allow="army" oneway="0"/>
    <type id="highway.living_street" priority="2" numLanes="1" speed="2.78" disallow="tram rail_urban rail rail_electric rail_fast ship" oneway="0"/>
    <type id="highway.motorway" priority="14" numLanes="2" speed="27.78" allow="private emergency authority army vip passenger hov taxi bus coach delivery truck trailer motorcycle evehicle custom1 custom2" oneway="1"/>
    <type id="highway.motorway_link" priority="9" numLanes="1" speed="16.67" allow="private emergency authority army vip passenger hov taxi bus coach delivery truck trailer motorcycle evehicle custom1 custom2" oneway="1"/>
    <type id="highway.path" priority="1" numLanes="1" speed="2.78" allow="pedestrian bicycle" oneway="0" width="2.00"/>
    <type id="highway.pedestrian" priority="1" numLanes="1" speed="2.78" allow="pedestrian" oneway="1" width="2.00"/>
    <type id="highway.primary" priority="12" numLanes="2" speed="13.89" disallow="pedestrian tram rail_urban rail rail_electric rail_fast ship" oneway="0" sidewalkWidth="3.00"/>
    <type id="highway.primary_link" priority="7" numLanes="1" speed="13.89" disallow="pedestrian tram rail_urban rail rail_electric rail_fast ship" oneway="0" sidewalkWidth="3.00"/>
    <type id="highway.raceway" priority="15" numLanes="2" speed="83.33" allow="vip" oneway="0"/>
    <type id="highway.residential" priority="3" numLanes="1" speed="13.89" disallow="pedestrian tram rail_urban rail rail_electric rail_fast ship" oneway="0" sidewalkWidth="2.00"/>
    <type id="highway.secondary" priority="11" numLanes="1" speed="13.89" disallow="pedestrian tram rail_urban rail rail_electric rail_fast ship" oneway="0" sidewalkWidth="3.00"/>
    <type id="highway.secondary_link" priority="6" numLanes="1" speed="13.89" disallow="pedestrian tram rail_urban rail rail_electric rail_fast ship" oneway="0" sidewalkWidth="3.00"/>
    <type id="highway.service" priority="1" numLanes="1" speed="5.56" allow="pedestrian delivery bicycle" oneway="0"/>
    <type id="highway.stairs" priority="1" numLanes="1" speed="1.39" allow="pedestrian" oneway="1" width="2.00"/>
    <type id="highway.step" priority="1" numLanes="1" speed="1.39" allow="pedestrian" oneway="1" width="2.00"/>
    <type id="highway.steps" priority="1" numLanes="1" speed="1.39" allow="pedestrian" oneway="1" width="2.00"/>
    <type id="highway.tertiary" priority="10" numLanes="1" speed="13.89" disallow="pedestrian tram rail_urban rail rail_electric rail_fast ship" oneway="0" sidewalkWidth="3.00"/>
    <type id="highway.tertiary_link" priority="5" numLanes="1" speed="13.89" disallow="pedestrian tram rail_urban rail rail_electric rail_fast ship" oneway="0" sidewalkWidth="2.00"/>
    <type id="highway.track" priority="1" numLanes="1" speed="5.56" allow="pedestrian motorcycle moped bicycle" oneway="0"/>
    <type id="highway.trunk" priority="13" numLanes="2" speed="13.89" disallow="pedestrian bicycle tram rail_urban rail rail_electric rail_fast ship" oneway="0"/>
    <type id="highway.trunk_link" priority="8" numLanes="1" speed="13.89" disallow="pedestrian bicycle tram rail_urban rail rail_electric rail_fast ship" oneway="0"/>
    <type id="highway.unclassified" priority="4" numLanes="1" speed="13.89" disallow="pedestrian tram rail_urban rail rail_electric rail_fast ship" oneway="0" sidewalkWidth="2.00"/>
    <type id="highway.unsurfaced" priority="1" numLanes="1" speed="8.33" disallow="tram rail_urban rail rail_electric rail_fast ship" oneway="0"/>
    <type id="railway.highspeed" priority="21" numLanes="1" speed="69.44" allow="rail_fast" oneway="1"/>
    <type id="railway.light_rail" priority="19" numLanes="1" speed="27.78" allow="rail_urban" oneway="1"/>
    <type id="railway.preserved" priority="16" numLanes="1" speed="27.78" allow="rail" oneway="1"/>
    <type id="railway.rail" priority="20" numLanes="1" speed="44.44" allow="rail" oneway="1"/>
    <type id="railway.subway" priority="18" numLanes="1" speed="27.78" allow="rail_urban" oneway="1"/>
    <type id="railway.tram" priority="17" numLanes="1" speed="13.89" allow="tram" oneway="1"/>

    <edge id=":1822986890_0" function="internal">
        <lane id=":1822986890_0_0" index="0" allow="bicycle" speed="2.04" length="1.46" width="1.00" shape="904.15,-0.10 904.47,-0.42 904.74,-0.49 904.96,-0.32 905.14,0.10"/>
    </edge>
    <edge id=":2263093986_0" function="internal">
        <lane id=":2263093986_0_0" index="0" disallow="pedestrian tram rail_urban rail rail_electric rail_fast ship" speed="13.89" length="14.87" shape="342.71,910.49 329.14,904.36"/>
        <lane id=":2263093986_0_1" index="1" disallow="pedestrian tram rail_urban rail rail_electric rail_fast ship" speed="13.89" length="14.87" shape="344.04,907.58 330.51,901.47"/>
    </edge>
    <edge id=":2263093986_2" function="internal">
        <lane id=":2263093986_2_0" index="0" allow="delivery bicycle" speed="7.44" length="5.05" shape="344.04,907.58 340.34,904.15"/>
    </edge>
    <edge id=":2263093986_3" function="internal">
        <lane id=":2263093986_3_0" index="0" disallow="pedestrian tram rail_urban rail rail_electric rail_fast ship" speed="3.65" length="2.34" shape="344.04,907.58 343.28,906.36 343.25,905.46"/>
    </edge>
    <edge id=":2263093986_11" function="internal">
        <lane id=":2263093986_11_0" index="0" allow="delivery bicycle" speed="7.44" length="16.35" shape="340.34,904.15 339.95,903.80 339.39,898.93 341.97,894.52 347.26,892.10"/>
    </edge>
    <edge id=":2263093986_12" function="internal">
        <lane id=":2263093986_12_0" index="0" disallow="pedestrian tram rail_urban rail rail_electric rail_fast ship" speed="3.65" length="2.34" shape="343.25,905.46 343.95,904.90 345.37,904.67"/>
    </edge>
    <edge id=":2263093986_4" function="internal">
        <lane id=":2263093986_4_0" index="0" allow="delivery bicycle" speed="6.08" length="13.71" shape="348.24,895.20 343.57,896.25 341.76,897.69 342.80,899.53 346.70,901.76"/>
    </edge>
    <edge id=":2263093986_5" function="internal">
        <lane id=":2263093986_5_0" index="0" allow="delivery bicycle" speed="11.11" length="19.79" shape="348.24,895.20 344.58,897.04 340.71,900.10 336.17,902.29 330.51,901.47"/>
    </edge>
    <edge id=":2263093986_6" function="internal">
        <lane id=":2263093986_6_0" index="0" allow="pedestrian delivery bicycle" speed="3.67" length="4.74" shape="348.24,895.20 346.84,894.79 346.20,894.14 346.35,893.24 347.26,892.10"/>
    </edge>
    <edge id=":2263093986_7" function="internal">
        <lane id=":2263093986_7_0" index="0" allow="delivery bicycle" speed="11.11" length="15.10" shape="333.25,895.69 337.50,896.53 340.85,895.31 343.90,893.39 347.26,892.10"/>
    </edge>
    <edge id=":2263093986_8" function="internal">
        <lane id=":2263093986_8_0" index="0" disallow="pedestrian tram rail_urban rail rail_electric rail_fast ship" speed="13.89" length="14.78" shape="333.25,895.69 346.70,901.76"/>
        <lane id=":2263093986_8_1" index="1" disallow="pedestrian tram rail_urban rail rail_electric rail_fast ship" speed="13.89" length="14.78" shape="331.88,898.58 345.37,904.67"/>
    </edge>
    <edge id=":2263093986_10" function="internal">
        <lane id=":2263093986_10_0" index="0" disallow="pedestrian tram rail_urban rail rail_electric rail_fast ship" speed="3.65" length="2.34" shape="331.88,898.58 332.62,899.81 332.64,900.71"/>
    </edge>
    <edge id=":2263093986_13" function="internal">
        <lane id=":2263093986_13_0" index="0" disallow="pedestrian tram rail_urban rail rail_electric rail_fast ship" speed="3.65" length="2.34" shape="332.64,900.71 331.94,901.26 330.51,901.47"/>
    </edge>
    <edge id=":2263093986_c0" function="crossing" crossingEdges="-313014417#1 313014417#0">
        <lane id=":2263093986_c0_0" index="0" allow="pedestrian" speed="1.00" length="12.80" width="4.00" shape="345.54,899.47 340.23,911.12"/>
    </edge>
    <edge id=":2263093986_w0" function="walkingarea">
        <lane id=":2263093986_w0_0" index="0" allow="pedestrian" speed="1.00" length="10.16" width="4.00" shape="328.46,905.81 327.17,908.52 340.81,914.68 342.05,911.95 338.41,910.29"/>
    </edge>
    <edge id=":2263093986_w1" function="walkingarea">
        <lane id=":2263093986_w1_0" index="0" allow="pedestrian" speed="1.00" length="8.31" width="4.00" shape="343.72,898.64 347.36,900.30 348.61,897.57 348.46,896.78 348.02,893.61 347.48,893.69 347.04,890.52 335.22,891.53 333.94,894.24"/>
    </edge>
    <edge id=":2990834637_0" function="internal">
        <lane id=":2990834637_0_0" index="0" disallow="pedestrian tram rail_urban rail rail_electric rail_fast ship" speed="3.65" length="4.67" shape="174.63,827.66 173.88,826.42 173.86,825.53 174.56,824.97 175.98,824.76"/>
    </edge>
    <edge id=":2990834637_w0" function="walkingarea">
        <lane id=":2990834637_w0_0" index="0" allow="pedestrian" speed="1.00" length="15.80" width="3.00" shape="178.02,820.41 179.30,817.70 171.31,834.72 172.59,832.00"/>
    </edge>
    <edge id=":318770897_0" function="internal">
        <lane id=":318770897_0_0" index="0" disallow="pedestrian tram rail_urban rail rail_electric rail_fast ship" speed="3.65" length="4.67" shape="531.05,990.83 531.80,992.06 531.83,992.96 531.13,993.52 529.70,993.74"/>
    </edge>
    <edge id=":318770897_w0" function="walkingarea">
        <lane id=":318770897_w0_0" index="0" allow="pedestrian" speed="1.00" length="15.80" width="3.00" shape="527.69,998.09 526.43,1000.82 534.33,983.76 533.06,986.48"/>
    </edge>
    <edge id=":4181292854_0" function="internal">
        <lane id=":4181292854_0_0" index="0" allow="bicycle" speed="2.04" length="1.46" width="1.00" shape="23.18,1622.33 22.77,1622.50 22.49,1622.47 22.35,1622.23 22.35,1621.78"/>
    </edge>
    <edge id=":cluster_2263093991_33389991_3670672580_5260449267_0" function="internal">
        <lane id=":cluster_2263093991_33389991_3670672580_5260449267_0_0" index="0" allow="bicycle" speed="5.45" length="1.92" width="1.00" shape="386.22,931.62 385.17,931.49 384.41,931.89"/>
    </edge>
    <edge id=":cluster_2263093991_33389991_3670672580_5260449267_1" function="internal">
        <lane id=":cluster_2263093991_33389991_3670672580_5260449267_1_0" index="0" disallow="pedestrian tram rail_urban rail rail_electric rail_fast ship" speed="13.89" length="17.60" shape="386.67,930.62 370.68,923.27"/>
        <lane id=":cluster_2263093991_33389991_3670672580_5260449267_1_1" index="1" disallow="pedestrian tram rail_urban rail rail_electric rail_fast ship" speed="13.89" length="17.60" shape="388.00,927.71 372.02,920.36"/>
    </edge>
    <edge id=":cluster_2263093991_33389991_3670672580_5260449267_3" function="internal">
        <lane id=":cluster_2263093991_33389991_3670672580_5260449267_3_0" index="0" allow="bicycle" speed="9.19" length="0.84" width="1.00" shape="388.46,926.71 388.06,925.97"/>
    </edge>
    <edge id=":cluster_2263093991_33389991_3670672580_5260449267_4" function="internal">
        <lane id=":cluster_2263093991_33389991_3670672580_5260449267_4_0" index="0" disallow="pedestrian tram rail_urban rail rail_electric rail_fast ship" speed="3.65" length="2.34" shape="388.00,927.71 387.24,926.48 387.21,925.59"/>
    </edge>
    <edge id=":cluster_2263093991_33389991_3670672580_5260449267_28" function="internal">
        <lane id=":cluster_2263093991_33389991_3670672580_5260449267_28_0" index="0" allow="bicycle" speed="5.45" length="4.13" width="1.00" shape="384.41,931.89 384.13,932.04 383.09,933.29 382.07,935.23"/>
    </edge>
    <edge id=":cluster_2263093991_33389991_3670672580_5260449267_29" function="internal">
        <lane id=":cluster_2263093991_33389991_3670672580_5260449267_29_0" index="0" allow="bicycle" speed="9.19" length="19.64" width="1.00" shape="388.06,925.97 387.49,924.93 388.20,921.22 390.59,915.61 394.67,908.07"/>
    </edge>
    <edge id=":cluster_2263093991_33389991_3670672580_5260449267_30" function="internal">
        <lane id=":cluster_2263093991_33389991_3670672580_5260449267_30_0" index="0" disallow="pedestrian tram rail_urban rail rail_electric rail_fast ship" speed="3.65" length="2.34" shape="387.21,925.59 387.90,925.03 389.32,924.80"/>
    </edge>
    <edge id=":cluster_2263093991_33389991_3670672580_5260449267_5" function="internal">
        <lane id=":cluster_2263093991_33389991_3670672580_5260449267_5_0" index="0" allow="bicycle" speed="7.37" length="13.53" shape="395.53,908.58 392.80,913.60 391.15,917.32 390.58,919.75 391.11,920.88"/>
    </edge>
    <edge id=":cluster_2263093991_33389991_3670672580_5260449267_6" function="internal">
        <lane id=":cluster_2263093991_33389991_3670672580_5260449267_6_0" index="0" allow="bicycle" speed="8.33" length="29.87" width="1.00" shape="395.53,908.58 392.66,913.92 388.63,921.81 384.68,929.75 382.07,935.23"/>
    </edge>
    <edge id=":cluster_2263093991_33389991_3670672580_5260449267_7" function="internal">
        <lane id=":cluster_2263093991_33389991_3670672580_5260449267_7_0" index="0" allow="bicycle" speed="11.11" length="11.43" shape="395.53,908.58 389.95,916.42 388.56,917.56"/>
    </edge>
    <edge id=":cluster_2263093991_33389991_3670672580_5260449267_8" function="internal">
        <lane id=":cluster_2263093991_33389991_3670672580_5260449267_8_0" index="0" allow="bicycle" speed="2.04" length="0.73" width="1.00" shape="395.53,908.58 395.13,908.77 394.85,908.75"/>
    </edge>
    <edge id=":cluster_2263093991_33389991_3670672580_5260449267_31" function="internal">
        <lane id=":cluster_2263093991_33389991_3670672580_5260449267_31_0" index="0" allow="bicycle" speed="11.11" length="18.66" shape="388.56,917.56 384.10,921.17 377.97,922.82 371.56,921.36"/>
    </edge>
    <edge id=":cluster_2263093991_33389991_3670672580_5260449267_32" function="internal">
        <lane id=":cluster_2263093991_33389991_3670672580_5260449267_32_0" index="0" allow="bicycle" speed="2.04" length="0.73" width="1.00" shape="394.85,908.75 394.70,908.52 394.67,908.07"/>
    </edge>
    <edge id=":cluster_2263093991_33389991_3670672580_5260449267_9" function="internal">
        <lane id=":cluster_2263093991_33389991_3670672580_5260449267_9_0" index="0" allow="delivery bicycle" speed="6.58" length="8.63" shape="379.87,903.28 382.87,904.52 385.20,905.06 386.88,904.93 387.89,904.10"/>
    </edge>
    <edge id=":cluster_2263093991_33389991_3670672580_5260449267_10" function="internal">
        <lane id=":cluster_2263093991_33389991_3670672580_5260449267_10_0" index="0" allow="pedestrian delivery bicycle" speed="3.65" length="2.94" shape="379.87,903.28 380.63,904.51 380.66,905.40 380.18,905.78"/>
    </edge>
    <edge id=":cluster_2263093991_33389991_3670672580_5260449267_33" function="internal">
        <lane id=":cluster_2263093991_33389991_3670672580_5260449267_33_0" index="0" allow="pedestrian delivery bicycle" speed="3.65" length="1.73" shape="380.18,905.78 379.96,905.96 378.54,906.19"/>
    </edge>
    <edge id=":cluster_2263093991_33389991_3670672580_5260449267_11" function="internal">
        <lane id=":cluster_2263093991_33389991_3670672580_5260449267_11_0" index="0" allow="delivery bicycle" speed="4.69" length="9.19" shape="374.69,914.54 378.54,906.19"/>
    </edge>
    <edge id=":cluster_2263093991_33389991_3670672580_5260449267_12" function="internal">
        <lane id=":cluster_2263093991_33389991_3670672580_5260449267_12_0" index="0" disallow="pedestrian tram rail_urban rail rail_electric rail_fast ship" speed="9.79" length="16.12" shape="374.69,914.54 378.88,915.46 382.94,914.29 386.86,911.05 388.33,908.99"/>
    </edge>
    <edge id=":cluster_2263093991_33389991_3670672580_5260449267_13" function="internal">
        <lane id=":cluster_2263093991_33389991_3670672580_5260449267_13_0" index="0" allow="bicycle" speed="10.34" length="18.62" width="1.00" shape="375.15,913.54 381.21,915.43 386.49,915.14 390.97,912.69 392.15,911.23"/>
    </edge>
    <edge id=":cluster_2263093991_33389991_3670672580_5260449267_14" function="internal">
        <lane id=":cluster_2263093991_33389991_3670672580_5260449267_14_0" index="0" disallow="pedestrian tram rail_urban rail rail_electric rail_fast ship" speed="13.89" length="17.57" shape="374.69,914.54 390.65,921.88"/>
        <lane id=":cluster_2263093991_33389991_3670672580_5260449267_14_1" index="1" disallow="pedestrian tram rail_urban rail rail_electric rail_fast ship" speed="13.89" length="17.57" shape="373.36,917.45 389.32,924.80"/>
    </edge>
    <edge id=":cluster_2263093991_33389991_3670672580_5260449267_16" function="internal">
        <lane id=":cluster_2263093991_33389991_3670672580_5260449267_16_0" index="0" allow="bicycle" speed="9.80" length="4.70" width="1.00" shape="372.90,918.45 376.94,920.86"/>
    </edge>
    <edge id=":cluster_2263093991_33389991_3670672580_5260449267_17" function="internal">
        <lane id=":cluster_2263093991_33389991_3670672580_5260449267_17_0" index="0" disallow="pedestrian tram rail_urban rail rail_electric rail_fast ship" speed="3.65" length="2.34" shape="373.36,917.45 374.11,918.68 374.14,919.57"/>
    </edge>
    <edge id=":cluster_2263093991_33389991_3670672580_5260449267_34" function="internal">
        <lane id=":cluster_2263093991_33389991_3670672580_5260449267_34_0" index="0" disallow="pedestrian tram rail_urban rail rail_electric rail_fast ship" speed="9.79" length="4.01" shape="388.33,908.99 390.65,905.72"/>
    </edge>
    <edge id=":cluster_2263093991_33389991_3670672580_5260449267_35" function="internal">
        <lane id=":cluster_2263093991_33389991_3670672580_5260449267_35_0" index="0" allow="bicycle" speed="10.34" length="4.04" width="1.00" shape="392.15,911.23 394.67,908.07"/>
    </edge>
    <edge id=":cluster_2263093991_33389991_3670672580_5260449267_36" function="internal">
        <lane id=":cluster_2263093991_33389991_3670672580_5260449267_36_0" index="0" allow="bicycle" speed="9.80" length="16.92" width="1.00" shape="376.94,920.86 378.65,921.88 382.10,925.82 383.24,930.27 382.07,935.23"/>
    </edge>
    <edge id=":cluster_2263093991_33389991_3670672580_5260449267_37" function="internal">
        <lane id=":cluster_2263093991_33389991_3670672580_5260449267_37_0" index="0" disallow="pedestrian tram rail_urban rail rail_electric rail_fast ship" speed="3.65" length="2.34" shape="374.14,919.57 373.44,920.13 372.02,920.36"/>
    </edge>
    <edge id=":cluster_2263093991_33389991_3670672580_5260449267_18" function="internal">
        <lane id=":cluster_2263093991_33389991_3670672580_5260449267_18_0" index="0" disallow="pedestrian tram rail_urban rail rail_electric rail_fast ship" speed="6.82" length="5.66" shape="373.65,931.47 374.41,928.83 374.17,926.58 373.81,926.04"/>
    </edge>
    <edge id=":cluster_2263093991_33389991_3670672580_5260449267_19" function="internal">
        <lane id=":cluster_2263093991_33389991_3670672580_5260449267_19_0" index="0" allow="delivery bicycle" speed="10.94" length="26.89" shape="373.65,931.47 377.74,921.34 379.92,913.75 380.19,908.70 378.54,906.19"/>
    </edge>
    <edge id=":cluster_2263093991_33389991_3670672580_5260449267_20" function="internal">
        <lane id=":cluster_2263093991_33389991_3670672580_5260449267_20_0" index="0" disallow="pedestrian tram rail_urban rail rail_electric rail_fast ship" speed="13.89" length="31.46" shape="373.65,931.47 378.29,923.58 382.95,919.10 387.89,914.78 393.42,907.34"/>
    </edge>
    <edge id=":cluster_2263093991_33389991_3670672580_5260449267_21" function="internal">
        <lane id=":cluster_2263093991_33389991_3670672580_5260449267_21_0" index="0" allow="bicycle" speed="11.11" length="31.07" width="1.00" shape="375.56,932.33 380.83,923.19 386.52,916.53 391.51,911.70 394.67,908.07"/>
    </edge>
    <edge id=":cluster_2263093991_33389991_3670672580_5260449267_22" function="internal">
        <lane id=":cluster_2263093991_33389991_3670672580_5260449267_22_0" index="0" disallow="pedestrian tram rail_urban rail rail_electric rail_fast ship" speed="8.12" length="9.05" shape="379.49,934.08 382.01,929.21 384.20,926.40"/>
    </edge>
    <edge id=":cluster_2263093991_33389991_3670672580_5260449267_23" function="internal">
        <lane id=":cluster_2263093991_33389991_3670672580_5260449267_23_0" index="0" allow="bicycle" speed="3.45" length="3.42" width="1.00" shape="378.49,933.64 381.61,935.03"/>
    </edge>
    <edge id=":cluster_2263093991_33389991_3670672580_5260449267_38" function="internal">
        <lane id=":cluster_2263093991_33389991_3670672580_5260449267_38_0" index="0" disallow="pedestrian tram rail_urban rail rail_electric rail_fast ship" speed="6.82" length="4.26" shape="373.81,926.04 372.92,924.72 370.68,923.27"/>
    </edge>
    <edge id=":cluster_2263093991_33389991_3670672580_5260449267_39" function="internal">
        <lane id=":cluster_2263093991_33389991_3670672580_5260449267_39_0" index="0" disallow="pedestrian tram rail_urban rail rail_electric rail_fast ship" speed="8.12" length="5.72" shape="384.20,926.40 384.49,926.03 386.92,924.56 389.32,924.80"/>
    </edge>
    <edge id=":cluster_2263093991_33389991_3670672580_5260449267_40" function="internal">
        <lane id=":cluster_2263093991_33389991_3670672580_5260449267_40_0" index="0" allow="bicycle" speed="3.45" length="0.51" width="1.00" shape="381.61,935.03 382.07,935.23"/>
    </edge>
    <edge id=":cluster_2263093991_33389991_3670672580_5260449267_24" function="internal">
        <lane id=":cluster_2263093991_33389991_3670672580_5260449267_24_0" index="0" allow="bicycle" speed="8.40" length="12.33" shape="381.16,934.82 381.24,932.44 379.45,929.89 375.77,927.16 373.77,926.12"/>
    </edge>
    <edge id=":cluster_2263093991_33389991_3670672580_5260449267_25" function="internal">
        <lane id=":cluster_2263093991_33389991_3670672580_5260449267_25_0" index="0" allow="bicycle" speed="8.33" length="29.98" width="1.00" shape="381.16,934.82 383.77,929.33 387.74,921.36 391.79,913.43 394.67,908.07"/>
    </edge>
    <edge id=":cluster_2263093991_33389991_3670672580_5260449267_26" function="internal">
        <lane id=":cluster_2263093991_33389991_3670672580_5260449267_26_0" index="0" allow="bicycle" speed="7.93" length="13.63" shape="381.16,934.82 383.77,929.47 386.08,925.85 388.09,923.96 388.71,923.90"/>
    </edge>
    <edge id=":cluster_2263093991_33389991_3670672580_5260449267_27" function="internal">
        <lane id=":cluster_2263093991_33389991_3670672580_5260449267_27_0" index="0" allow="bicycle" speed="2.04" length="0.73" width="1.00" shape="381.16,934.82 381.54,934.58 381.82,934.57"/>
    </edge>
    <edge id=":cluster_2263093991_33389991_3670672580_5260449267_41" function="internal">
        <lane id=":cluster_2263093991_33389991_3670672580_5260449267_41_0" index="0" allow="bicycle" speed="8.40" length="4.01" shape="373.77,926.12 370.22,924.27"/>
    </edge>
    <edge id=":cluster_2263093991_33389991_3670672580_5260449267_42" function="internal">
        <lane id=":cluster_2263093991_33389991_3670672580_5260449267_42_0" index="0" allow="bicycle" speed="7.93" length="1.08" shape="388.71,923.90 389.78,923.80"/>
    </edge>
    <edge id=":cluster_2263093991_33389991_3670672580_5260449267_43" function="internal">
        <lane id=":cluster_2263093991_33389991_3670672580_5260449267_43_0" index="0" allow="bicycle" speed="2.04" length="0.73" width="1.00" shape="381.82,934.57 381.99,934.79 382.07,935.23"/>
    </edge>
    <edge id=":cluster_2263093991_33389991_3670672580_5260449267_c0" function="crossing" crossingEdges="-125496888#1 125496888#0">
        <lane id=":cluster_2263093991_33389991_3670672580_5260449267_c0_0" index="0" allow="pedestrian" speed="1.00" length="12.80" width="4.00" shape="389.49,919.60 384.19,931.25"/>
    </edge>
    <edge id=":cluster_2263093991_33389991_3670672580_5260449267_c1" function="crossing" crossingEdges="313014418#2 417612252#1 -417612252#1">
        <lane id=":cluster_2263093991_33389991_3670672580_5260449267_c1_0" index="0" allow="pedestrian" speed="1.00" length="10.96" width="4.00" shape="385.50,905.02 394.96,910.56"/>
    </edge>
    <edge id=":cluster_2263093991_33389991_3670672580_5260449267_c2" function="crossing" crossingEdges="313014417#0 -313014417#1">
        <lane id=":cluster_2263093991_33389991_3670672580_5260449267_c2_0" index="0" allow="pedestrian" speed="1.00" length="12.80" width="4.00" shape="371.83,925.55 377.18,913.93"/>
    </edge>
    <edge id=":cluster_2263093991_33389991_3670672580_5260449267_c3" function="crossing" crossingEdges="-417612252#0 417612252#0 4865914#0">
        <lane id=":cluster_2263093991_33389991_3670672580_5260449267_c3_0" index="0" allow="pedestrian" speed="1.00" length="11.33" width="4.00" shape="383.34,933.61 372.99,929.00"/>
    </edge>
    <edge id=":cluster_2263093991_33389991_3670672580_5260449267_w0" function="walkingarea">
        <lane id=":cluster_2263093991_33389991_3670672580_5260449267_w0_0" index="0" allow="pedestrian" speed="1.00" length="2.35" width="4.00" shape="382.53,935.44 384.77,934.81 386.01,932.08 385.46,931.96 384.89,932.12 384.31,932.54 383.73,933.24 383.13,934.20"/>
    </edge>
    <edge id=":cluster_2263093991_33389991_3670672580_5260449267_w1" function="walkingarea">
        <lane id=":cluster_2263093991_33389991_3670672580_5260449267_w1_0" index="0" allow="pedestrian" speed="1.00" length="7.37" width="4.00" shape="391.31,920.43 392.56,917.70 395.97,908.83 394.09,912.16 392.66,914.94 391.66,917.16 391.10,918.81 390.99,919.90"/>
    </edge>
    <edge id=":cluster_2263093991_33389991_3670672580_5260449267_w2" function="walkingarea">
        <lane id=":cluster_2263093991_33389991_3670672580_5260449267_w2_0" index="0" allow="pedestrian" speed="1.00" length="7.95" width="4.00" shape="386.51,903.29 383.92,901.78 380.56,901.84 379.19,904.73 379.22,904.74 377.85,907.64 376.62,910.36 375.36,913.09 376.86,913.36 378.50,912.87 380.28,911.62 382.21,909.61 384.29,906.83"/>
    </edge>
    <edge id=":cluster_2263093991_33389991_3670672580_5260449267_w3" function="walkingarea">
        <lane id=":cluster_2263093991_33389991_3670672580_5260449267_w3_0" index="0" allow="pedestrian" speed="1.00" length="3.73" width="4.00" shape="370.01,924.72 368.76,927.44 369.45,929.60 372.19,930.82 372.65,929.48 372.78,928.26 372.58,927.18 372.06,926.23 371.20,925.41"/>
    </edge>

    <edge id="-125496888#1" from="cluster_2263093991_33389991_3670672580_5260449267" to="318770897" name="Bulevardul Dacia" priority="12" type="highway.primary" shape="386.06,925.07 389.54,926.65 451.80,955.91 472.13,965.33 510.25,982.97 530.38,992.29">
        <lane id="-125496888#1_0" index="0" allow="pedestrian" speed="13.89" length="156.38" width="3.00" shape="391.93,919.06 392.85,919.48 455.14,948.75 475.45,958.16 513.57,975.80 533.70,985.12">
            <param key="origId" value="125496888"/>
        </lane>
        <lane id="-125496888#1_1" index="1" disallow="pedestrian tram rail_urban rail rail_electric rail_fast ship" speed="13.89" length="156.38" shape="390.65,921.88 391.55,922.29 453.83,951.56 474.15,960.97 512.27,978.61 532.39,987.93">
            <param key="origId" value="125496888"/>
        </lane>