<?xml version="1.0" encoding="UTF-8"?>
<!-- generated on 2021-11-16 11:39:04.253417 by $Id$ v1_10_0+0000-83496a5972
  options: 
-->
<routes xmlns:xsi="http://www.w3.org/2001/XMLSchema-instance" xsi:noNamespaceSchemaLocation="http://sumo.dlr.de/xsd/routes_file.xsd">
    <vType id="ped_pedestrian" vClass="pedestrian"/>
    <person id="ped0" depart="0.00" type="ped_pedestrian">
        <walk from="313014417#2" to="-125496888#1"/>
    </person>
    <person id="ped1" depart="45.54" type="ped_pedestrian">
        <walk from="-313014417#2" to="-313014417#2"/>
    </person>
    <person id="ped2" depart="91.08" type="ped_pedestrian">
        <walk from="313014418#2" to="313014417#2"/>
    </person>
    <person id="ped3" depart="136.62" type="ped_pedestrian">
        <walk from="4865914#0" to="-125496888#1"/>
    </person>
    <person id="ped4" depart="182.16" type="ped_pedestrian">
        <walk from="125496888#0" to="-125496888#1"/>
    </person>
    <person id="ped5" depart="227.70" type="ped_pedestrian">
        <walk from="-313014417#2" to="313014417#0"/>
    </person>
    <person id="ped6" depart="273.23" type="ped_pedestrian">
        <walk from="-125496888#1" to="-313014417#1"/>
    </person>
    <person id="ped7" depart="318.77" type="ped_pedestrian">
        <walk from="313014417#2" to="313014417#0"/>
    </person>
    <person id="ped8" depart="364.31" type="ped_pedestrian">
        <walk from="-313014417#2" to="313014417#0"/>
    </person>
    <person id="ped9" depart="409.85" type="ped_pedestrian">
        <walk from="4865914#0" to="-125496888#1"/>
    </person>
    <person id="ped10" depart="455.39" type="ped_pedestrian">
        <walk from="4865914#0" to="313014417#2"/>
    </person>
    <person id="ped11" depart="500.93" type="ped_pedestrian">
        <walk from="-78062035" to="-313014417#1"/>
    </person>
    <person id="ped12" depart="546.47" type="ped_pedestrian">
        <walk from="78062035" to="-78062035"/>
    </person>
    <person id="ped13" depart="592.01" type="ped_pedestrian">
        <walk from="-125496888#1" to="-125496888#1"/>
    </person>
    <person id="ped14" depart="637.55" type="ped_pedestrian">
        <walk from="4865914#0" to="313014417#2"/>
    </person>
    <person id="ped15" depart="683.09" type="ped_pedestrian">
        <walk from="4865914#0" to="313014418#2"/>
    </person>
    <person id="ped16" depart="728.63" type="ped_pedestrian">
        <walk from="313014417#0" to="78062035"/>
    </person>
    <person id="ped17" depart="774.17" type="ped_pedestrian">
        <walk from="-78062035" to="313014417#0"/>
    </person>
    <person id="ped18" depart="819.70" type="ped_pedestrian">
        <walk from="4865914#0" to="313014417#2"/>
    </person>
    <person id="ped19" depart="865.24" type="ped_pedestrian">
        <walk from="4865914#0" to="313014417#0"/>
    </person>
    <person id="ped20" depart="910.78" type="ped_pedestrian">
        <walk from="313014418#2" to="-125496888#1"/>
    </person>
    <person id="ped21" depart="956.32" type="ped_pedestrian">
        <walk from="-313014417#2" to="-313014417#2"/>
    </person>
    <person id="ped22" depart="1001.86" type="ped_pedestrian">
        <walk from="-125496888#1" to="-313014417#2"/>
    </person>
    <person id="ped23" depart="1047.40" type="ped_pedestrian">
        <walk from="-313014417#1" to="-313014417#2"/>
    </person>
    <person id="ped24" depart="1092.94" type="ped_pedestrian">
        <walk from="313014417#2" to="-78062035"/>
    </person>
    <person id="ped25" depart="1138.48" type="ped_pedestrian">
        <walk from="-78062035" to="-313014417#2"/>
    </person>
    <person id="ped26" depart="1184.02" type="ped_pedestrian">
        <walk from="-313014417#2" to="78062035"/>
    </person>
    <person id="ped27" depart="1229.56" type="ped_pedestrian">
        <walk from="313014417#2" to="313014417#2"/>
    </person>
    <person id="ped28" depart="1275.10" type="ped_pedestrian">
        <walk from="-313014417#1" to="313014418#2"/>
    </person>
    <person id="ped29" depart="1320.63" type="ped_pedestrian">
        <walk from="-313014417#1" to="-78062035"/>
    </person>
    <person id="ped30" depart="1366.17" type="ped_pedestrian">
        <walk from="78062035" to="313014417#2"/>
    </person>
    <person id="ped31" depart="1411.71" type="ped_pedestrian">
        <walk from="313014417#0" to="313014417#2"/>
    </person>
    <person id="ped32" depart="1457.25" type="ped_pedestrian">
        <walk from="4865914#0" to="313014418#2"/>
    </person>
    <person id="ped33" depart="1502.79" type="ped_pedestrian">
        <walk from="-313014417#2" to="-125496888#1"/>
    </person>
    <person id="ped34" depart="1548.33" type="ped_pedestrian">
        <walk from="-78062035" to="-313014417#2"/>
    </person>
    <person id="ped35" depart="1593.87" type="ped_pedestrian">
        <walk from="-313014417#2" to="78062035"/>
    </person>
    <person id="ped36" depart="1639.41" type="ped_pedestrian">
        <walk from="4865914#0" to="-78062035"/>
    </person>
    <person id="ped37" depart="1684.95" type="ped_pedestrian">
        <walk from="313014417#2" to="-78062035"/>
    </person>
    <person id="ped38" depart="1730.49" type="ped_pedestrian">
        <walk from="78062035" to="125496888#0"/>
    </person>
    <person id="ped39" depart="1776.03" type="ped_pedestrian">
        <walk from="-313014417#2" to="-313014417#2"/>
    </person>
    <person id="ped40" depart="1821.57" type="ped_pedestrian">
        <walk from="313014417#0" to="-313014417#2"/>
    </person>
    <person id="ped41" depart="1867.10" type="ped_pedestrian">
        <walk from="313014417#0" to="4865914#0"/>
    </person>
    <person id="ped42" depart="1912.64" type="ped_pedestrian">
        <walk from="-78062035" to="-313014417#2"/>
    </person>
    <person id="ped43" depart="1958.18" type="ped_pedestrian">
        <walk from="78062035" to="313014417#0"/>
    </person>
    <person id="ped44" depart="2003.72" type="ped_pedestrian">
        <walk from="-125496888#1" to="-125496888#1"/>
    </person>
    <person id="ped45" depart="2049.26" type="ped_pedestrian">
        <walk from="-313014417#1" to="313014417#2"/>
    </person>
    <person id="ped46" depart="2094.80" type="ped_pedestrian">
        <walk from="313014418#2" to="125496888#0"/>
    </person>
    <person id="ped47" depart="2140.34" type="ped_pedestrian">
        <walk from="-125496888#1" to="-78062035"/>
    </person>
    <person id="ped48" depart="2185.88" type="ped_pedestrian">
        <walk from="78062035" to="313014417#0"/>
    </person>
    <person id="ped49" depart="2231.42" type="ped_pedestrian">
        <walk from="78062035" to="4865914#0"/>
    </person>
    <person id="ped50" depart="2276.96" type="ped_pedestrian">
        <walk from="-125496888#1" to="313014418#2"/>
    </person>
    <person id="ped51" depart="2322.50" type="ped_pedestrian">
        <walk from="313014417#2" to="313014417#0"/>
    </person>
    <person id="ped52" depart="2368.03" type="ped_pedestrian">
        <walk from="-313014417#2" to="313014417#2"/>
    </person>
    <person id="ped53" depart="2413.57" type="ped_pedestrian">
        <walk from="-313014417#1" to="125496888#0"/>
    </person>
    <person id="ped54" depart="2459.11" type="ped_pedestrian">
        <walk from="125496888#0" to="78062035"/>
    </person>
    <person id="ped55" depart="2504.65" type="ped_pedestrian">
        <walk from="4865914#0" to="-313014417#2"/>
    </person>
    <person id="ped56" depart="2550.19" type="ped_pedestrian">
        <walk from="313014417#0" to="-313014417#1"/>
    </person>
    <person id="ped57" depart="2595.73" type="ped_pedestrian">
        <walk from="78062035" to="4865914#0"/>
    </person>
    <person id="ped58" depart="2641.27" type="ped_pedestrian">
        <walk from="-313014417#2" to="313014417#2"/>
    </person>
    <person id="ped59" depart="2686.81" type="ped_pedestrian">
        <walk from="313014417#2" to="-313014417#1"/>
    </person>
    <person id="ped60" depart="2732.35" type="ped_pedestrian">
        <walk from="313014418#2" to="313014417#0"/>
    </person>
    <person id="ped61" depart="2777.89" type="ped_pedestrian">
        <walk from="313014418#2" to="313014417#0"/>
    </person>
    <person id="ped62" depart="2823.43" type="ped_pedestrian">
        <walk from="-125496888#1" to="-78062035"/>
    </person>
    <person id="ped63" depart="2868.96" type="ped_pedestrian">
        <walk from="-125496888#1" to="78062035"/>
    </person>
    <person id="ped64" depart="2914.50" type="ped_pedestrian">
        <walk from="4865914#0" to="4865914#0"/>
    </person>
    <person id="ped65" depart="2960.04" type="ped_pedestrian">
        <walk from="-78062035" to="-125496888#1"/>
    </person>
    <person id="ped66" depart="3005.58" type="ped_pedestrian">
        <walk from="4865914#0" to="78062035"/>
    </person>
    <person id="ped67" depart="3051.12" type="ped_pedestrian">
        <walk from="-125496888#1" to="125496888#0"/>
    </person>
    <person id="ped68" depart="3096.66" type="ped_pedestrian">
        <walk from="-125496888#1" to="313014418#2"/>
    </person>
    <person id="ped69" depart="3142.20" type="ped_pedestrian">
        <walk from="313014418#2" to="-313014417#1"/>
    </person>
    <person id="ped70" depart="3187.74" type="ped_pedestrian">
        <walk from="125496888#0" to="313014417#0"/>
    </person>
    <person id="ped71" depart="3233.28" type="ped_pedestrian">
        <walk from="-313014417#2" to="4865914#0"/>
    </person>
    <person id="ped72" depart="3278.82" type="ped_pedestrian">
        <walk from="125496888#0" to="-313014417#2"/>
    </person>
    <person id="ped73" depart="3324.36" type="ped_pedestrian">
        <walk from="313014417#0" to="313014418#2"/>
    </person>
    <person id="ped74" depart="3369.90" type="ped_pedestrian">
        <walk from="-313014417#2" to="-78062035"/>
    </person>
    <person id="ped75" depart="3415.43" type="ped_pedestrian">
        <walk from="78062035" to="313014417#2"/>
    </person>
    <person id="ped76" depart="3460.97" type="ped_pedestrian">
        <walk from="125496888#0" to="313014417#0"/>
    </person>
    <person id="ped77" depart="3506.51" type="ped_pedestrian">
        <walk from="-313014417#1" to="-313014417#2"/>
    </person>
    <person id="ped78" depart="3552.05" type="ped_pedestrian">
        <walk from="-78062035" to="313014417#0"/>
    </person>
    <person id="ped79" depart="3597.59" type="ped_pedestrian">
        <walk from="-313014417#2" to="-313014417#2"/>
    </person>
</routes>
