<?xml version="1.0" encoding="UTF-8"?>

<!-- generated on 2021-11-16 11:39:03 by Eclipse SUMO polyconvert Version 1.10.0
<configuration xmlns:xsi="http://www.w3.org/2001/XMLSchema-instance" xsi:noNamespaceSchemaLocation="http://sumo.dlr.de/xsd/polyconvertConfiguration.xsd">

    <input>
        <net-file value="osm.net.xml"/>
        <osm-files value="osm_bbox.osm.xml"/>
        <osm.keep-full-type value="true"/>
        <type-file value="C:\Program%20Files%20(x86)\Eclipse\Sumo\data\typemap\osmPolyconvert.typ.xml"/>
    </input>

    <output>
        <output-file value="osm.poly.xml"/>
    </output>

    <processing>
        <poi-layer-offset value="5"/>
    </processing>

    <report>
        <verbose value="true"/>
    </report>

</configuration>
-->

<additional xmlns:xsi="http://www.w3.org/2001/XMLSchema-instance" xsi:noNamespaceSchemaLocation="http://sumo.dlr.de/xsd/additional_file.xsd">
    <location netOffset="-427289.38,-4920833.36" convBoundary="0.00,0.00,904.65,1639.56" origBoundary="26.086143,44.437236,26.097723,44.451904" projParameter="+proj=utm +zone=35 +ellps=WGS84 +datum=WGS84 +units=m +no_defs"/>

    <poly id="131269866" type="building.yes" color="255,230,230" fill="1" layer="-1.00" shape="330.526436,868.287317 333.200210,863.258519 336.562639,865.054133 341.419445,855.235288 345.979665,857.395301 347.430212,854.724115 350.407358,856.224074 351.644362,854.388441 371.333930,863.056876 369.241196,868.812399 371.480708,869.820656 367.910533,878.692021 365.329602,877.754213 362.342029,883.908498 330.526436,868.287317"/>
    <poly id="131269866#1" type="historic.building" color="128,255,128" fill="1" layer="-1.00" shape="330.526436,868.287317 333.200210,863.258519 336.562639,865.054133 341.419445,855.235288 345.979665,857.395301 347.430212,854.724115 350.407358,856.224074 351.644362,854.388441 371.333930,863.056876 369.241196,868.812399 371.480708,869.820656 367.910533,878.692021 365.329602,877.754213 362.342029,883.908498 330.526436,868.287317"/>
    <poly id="311426510" type="building.yes" color="255,230,230" fill="1" layer="-1.00" shape="411.912999,902.465384 398.108399,917.771443 436.331629,937.132213 442.821922,925.340119 439.606672,923.176219 442.258048,918.992003 411.912999,902.465384"/>
    <poly id="311426510#1" type="tourism.hotel" color="207,245,201" fill="1" layer="-2.00" shape="411.912999,902.465384 398.108399,917.771443 436.331629,937.132213 442.821922,925.340119 439.606672,923.176219 442.258048,918.992003 411.912999,902.465384"/>
    <poly id="311433376" type="building.yes" color="255,230,230" fill="1" layer="-1.00" shape="379.601730,951.804086 398.554469,960.080858 405.455174,944.407108 386.502276,936.119208 379.601730,951.804086"/>
    <poly id="311433377" type="building.yes" color="255,230,230" fill="1" layer="-1.00" shape="407.000646,965.330502 441.177928,980.125975 448.597045,963.113431 414.419694,948.317918 407.000646,965.330502"/>
    <poly id="34117702" type="building.yes" color="255,230,230" fill="1" layer="-1.00" shape="413.666007,894.780674 448.373965,836.183938 514.064659,878.080550 486.575564,926.021031 466.820374,914.275776 482.833394,886.403253 454.071934,868.436911 432.709897,905.522743 413.666007,894.780674"/>
    <poly id="76914269" type="building.yes" color="255,230,230" fill="1" layer="-1.00" shape="433.740964,814.883693 407.062829,798.949597 373.759772,798.464133 345.912027,846.298111 393.179927,873.856571 401.558859,860.143812 370.601013,840.069289 384.008515,816.946817 420.100425,837.819792 433.740964,814.883693"/>
    <poly id="76914269#1" type="historic.castle" color="128,255,128" fill="1" layer="-1.00" shape="433.740964,814.883693 407.062829,798.949597 373.759772,798.464133 345.912027,846.298111 393.179927,873.856571 401.558859,860.143812 370.601013,840.069289 384.008515,816.946817 420.100425,837.819792 433.740964,814.883693"/>
    <poly id="814608567" type="leisure.garden" color="207,245,201" fill="1" layer="-2.00" shape="267.795063,1031.666033 191.954089,1028.744439 193.121926,998.559227 183.480546,998.188941 185.256402,952.577581 216.612667,966.259084 230.792498,933.951593 237.070174,936.692298 247.757574,912.344484 273.291885,923.469327 282.473800,902.559913 363.407842,940.430612 339.188154,994.567597 264.097577,961.853436 241.816830,1012.081060 280.590316,1027.257786 276.919435,1035.641529 267.795063,1031.666033"/>
    <poi id="8144021829" type="amenity.taxi" color="237,199,199" layer="4.00" x="25.35" y="1603.87"/>
</additional>
