<?xml version="1.0" encoding="UTF-8"?>

<!-- generated on 2021-11-16 11:39:03 by Eclipse SUMO duarouter Version 1.10.0
<configuration xmlns:xsi="http://www.w3.org/2001/XMLSchema-instance" xsi:noNamespaceSchemaLocation="http://sumo.dlr.de/xsd/duarouterConfiguration.xsd">

    <input>
        <net-file value="C:\Users\cipri\Sumo\2021-11-16-11-39-00\osm.net.xml"/>
        <route-files value="C:\Users\cipri\Sumo\2021-11-16-11-39-00\osm.bus.trips.xml"/>
    </input>

    <output>
        <output-file value="C:\Users\cipri\Sumo\2021-11-16-11-39-00\osm.bus.trips.xml.tmp"/>
        <write-trips value="true"/>
    </output>

    <time>
        <begin value="0"/>
        <end value="3600"/>
    </time>

    <report>
        <no-warnings value="true"/>
        <ignore-errors value="true"/>
        <no-step-log value="true"/>
    </report>

</configuration>
-->

<routes xmlns:xsi="http://www.w3.org/2001/XMLSchema-instance" xsi:noNamespaceSchemaLocation="http://sumo.dlr.de/xsd/routes_file.xsd">
    <vType id="bus_bus" vClass="bus"/>
    <trip id="bus0" type="bus_bus" depart="0.00" departLane="best" departSpeed="max" from="4865914#0" to="313014417#2"/>
    <trip id="bus1" type="bus_bus" depart="114.83" departLane="best" departSpeed="max" from="4865914#0" to="-125496888#1"/>
    <trip id="bus2" type="bus_bus" depart="229.66" departLane="best" departSpeed="max" from="4865914#0" to="-125496888#1"/>
    <trip id="bus3" type="bus_bus" depart="344.49" departLane="best" departSpeed="max" from="4865914#0" to="313014417#2"/>
    <trip id="bus4" type="bus_bus" depart="459.32" departLane="best" departSpeed="max" from="4865914#0" to="-313014417#1"/>
    <trip id="bus5" type="bus_bus" depart="574.15" departLane="best" departSpeed="max" from="4865914#0" to="313014417#2"/>
    <trip id="bus6" type="bus_bus" depart="688.98" departLane="best" departSpeed="max" from="4865914#0" to="313014418#2"/>
    <trip id="bus7" type="bus_bus" depart="803.81" departLane="best" departSpeed="max" from="125496888#0" to="313014418#2"/>
    <trip id="bus8" type="bus_bus" depart="918.64" departLane="best" departSpeed="max" from="4865914#0" to="313014417#2"/>
    <trip id="bus9" type="bus_bus" depart="1033.47" departLane="best" departSpeed="max" from="4865914#0" to="313014417#2"/>
    <trip id="bus10" type="bus_bus" depart="1148.30" departLane="best" departSpeed="max" from="-313014417#2" to="313014418#2"/>
    <trip id="bus11" type="bus_bus" depart="1263.13" departLane="best" departSpeed="max" from="-313014417#2" to="313014418#2"/>
    <trip id="bus12" type="bus_bus" depart="1377.96" departLane="best" departSpeed="max" from="4865914#0" to="313014417#2"/>
    <trip id="bus13" type="bus_bus" depart="1492.78" departLane="best" departSpeed="max" from="4865914#0" to="313014418#2"/>
    <trip id="bus14" type="bus_bus" depart="1607.61" departLane="best" departSpeed="max" from="-313014417#2" to="313014418#2"/>
    <trip id="bus15" type="bus_bus" depart="1722.44" departLane="best" departSpeed="max" from="4865914#0" to="-313014417#1"/>
    <trip id="bus16" type="bus_bus" depart="1837.27" departLane="best" departSpeed="max" from="4865914#0" to="313014417#2"/>
    <trip id="bus17" type="bus_bus" depart="1952.10" departLane="best" departSpeed="max" from="125496888#0" to="313014418#2"/>
    <trip id="bus18" type="bus_bus" depart="2066.93" departLane="best" departSpeed="max" from="4865914#0" to="313014417#2"/>
    <trip id="bus19" type="bus_bus" depart="2181.76" departLane="best" departSpeed="max" from="4865914#0" to="313014417#2"/>
    <trip id="bus20" type="bus_bus" depart="2296.59" departLane="best" departSpeed="max" from="4865914#0" to="313014417#2"/>
    <trip id="bus21" type="bus_bus" depart="2411.42" departLane="best" departSpeed="max" from="4865914#0" to="313014418#2"/>
    <trip id="bus22" type="bus_bus" depart="2526.25" departLane="best" from="-313014417#1" to="313014418#2"/>
    <trip id="bus23" type="bus_bus" depart="2641.08" departLane="best" departSpeed="max" from="125496888#0" to="313014418#2"/>
    <trip id="bus24" type="bus_bus" depart="2755.91" departLane="best" departSpeed="max" from="4865914#0" to="-125496888#1"/>
    <trip id="bus25" type="bus_bus" depart="2870.74" departLane="best" departSpeed="max" from="4865914#0" to="313014418#2"/>
    <trip id="bus26" type="bus_bus" depart="2985.57" departLane="best" departSpeed="max" from="4865914#0" to="313014417#2"/>
    <trip id="bus27" type="bus_bus" depart="3100.40" departLane="best" departSpeed="max" from="4865914#0" to="313014417#2"/>
    <trip id="bus28" type="bus_bus" depart="3215.23" departLane="best" from="-313014417#1" to="313014418#2"/>
    <trip id="bus29" type="bus_bus" depart="3330.06" departLane="best" departSpeed="max" from="4865914#0" to="313014418#2"/>
    <trip id="bus30" type="bus_bus" depart="3444.89" departLane="best" departSpeed="max" from="4865914#0" to="313014418#2"/>
    <trip id="bus31" type="bus_bus" depart="3559.72" departLane="best" departSpeed="max" from="-313014417#2" to="313014418#2"/>
</routes>
