<?xml version="1.0" encoding="UTF-8"?>
<!-- generated on 2021-11-16 10:39:10.818836 by $Id$ v1_10_0+0000-83496a5972
  options: 
-->
<routes xmlns:xsi="http://www.w3.org/2001/XMLSchema-instance" xsi:noNamespaceSchemaLocation="http://sumo.dlr.de/xsd/routes_file.xsd">
    <vType id="ped_pedestrian" vClass="pedestrian"/>
    <person id="ped0" depart="0.00" type="ped_pedestrian">
        <walk from="28869538#1" to="-125445934#1"/>
    </person>
    <person id="ped1" depart="2.77" type="ped_pedestrian">
        <walk from="119238385" to="-766633591"/>
    </person>
    <person id="ped2" depart="5.55" type="ped_pedestrian">
        <walk from="448266585" to="407982022#3"/>
    </person>
    <person id="ped3" depart="8.32" type="ped_pedestrian">
        <walk from="69546524" to="-130848152#2"/>
    </person>
    <person id="ped4" depart="11.09" type="ped_pedestrian">
        <walk from="22878052" to="-125496883"/>
    </person>
    <person id="ped5" depart="13.87" type="ped_pedestrian">
        <walk from="-308038298#0" to="23647410#1"/>
    </person>
    <person id="ped6" depart="16.64" type="ped_pedestrian">
        <walk from="-125445934#1" to="-245021868#1"/>
    </person>
    <person id="ped7" depart="19.41" type="ped_pedestrian">
        <walk from="308038298#0" to="237119283#0"/>
    </person>
    <person id="ped8" depart="22.19" type="ped_pedestrian">
        <walk from="-308038298#0" to="245021868#1"/>
    </person>
    <person id="ped9" depart="24.96" type="ped_pedestrian">
        <walk from="668307633#3" to="-119238385"/>
    </person>
    <person id="ped10" depart="27.73" type="ped_pedestrian">
        <walk from="668307633#2" to="44499684#3"/>
    </person>
    <person id="ped11" depart="30.50" type="ped_pedestrian">
        <walk from="125496897#1" to="-237119282"/>
    </person>
    <person id="ped12" depart="33.28" type="ped_pedestrian">
        <walk from="783025571" to="125496897#1"/>
    </person>
    <person id="ped13" depart="36.05" type="ped_pedestrian">
        <walk from="-205981089#0" to="-205981089#1"/>
    </person>
    <person id="ped14" depart="38.82" type="ped_pedestrian">
        <walk from="668307641" to="255865930"/>
    </person>
    <person id="ped15" depart="41.60" type="ped_pedestrian">
        <walk from="668307633#2" to="448266584"/>
    </person>
    <person id="ped16" depart="44.37" type="ped_pedestrian">
        <walk from="237119282" to="902475336#1"/>
    </person>
    <person id="ped17" depart="47.14" type="ped_pedestrian">
        <walk from="182932595" to="237119283#1"/>
    </person>
    <person id="ped18" depart="49.92" type="ped_pedestrian">
        <walk from="668307639#1" to="255865984"/>
    </person>
    <person id="ped19" depart="52.69" type="ped_pedestrian">
        <walk from="669156737#0" to="23781788"/>
    </person>
    <person id="ped20" depart="55.46" type="ped_pedestrian">
        <walk from="448266581#0" to="-125496894"/>
    </person>
    <person id="ped21" depart="58.24" type="ped_pedestrian">
        <walk from="-766633591" to="125445934#0"/>
    </person>
    <person id="ped22" depart="61.01" type="ped_pedestrian">
        <walk from="-130848152#1" to="-778823268#1"/>
    </person>
    <person id="ped23" depart="63.78" type="ped_pedestrian">
        <walk from="-205981089#1" to="119238385"/>
    </person>
    <person id="ped24" depart="66.56" type="ped_pedestrian">
        <walk from="28869538#0" to="131471728#0"/>
    </person>
    <person id="ped25" depart="69.33" type="ped_pedestrian">
        <walk from="131471728#0" to="-255865984"/>
    </person>
    <person id="ped26" depart="72.10" type="ped_pedestrian">
        <walk from="119238384#1" to="778823268#0"/>
    </person>
    <person id="ped27" depart="74.88" type="ped_pedestrian">
        <walk from="308038298#0" to="255865983"/>
    </person>
    <person id="ped28" depart="77.65" type="ped_pedestrian">
        <walk from="-23770807" to="448266584"/>
    </person>
    <person id="ped29" depart="80.42" type="ped_pedestrian">
        <walk from="-237119283#1" to="182932595"/>
    </person>
    <person id="ped30" depart="83.20" type="ped_pedestrian">
        <walk from="902475336#3" to="28869538#1"/>
    </person>
    <person id="ped31" depart="85.97" type="ped_pedestrian">
        <walk from="23770807" to="44499684#0"/>
    </person>
    <person id="ped32" depart="88.74" type="ped_pedestrian">
        <walk from="668307640#1" to="45665763#0"/>
    </person>
    <person id="ped33" depart="91.51" type="ped_pedestrian">
        <walk from="-766633591" to="-125496883"/>
    </person>
    <person id="ped34" depart="94.29" type="ped_pedestrian">
        <walk from="125496892" to="119238384#1"/>
    </person>
    <person id="ped35" depart="97.06" type="ped_pedestrian">
        <walk from="-255865984" to="778823270"/>
    </person>
    <person id="ped36" depart="99.83" type="ped_pedestrian">
        <walk from="69546522" to="125496892"/>
    </person>
    <person id="ped37" depart="102.61" type="ped_pedestrian">
        <walk from="407982022#0" to="205981089#1"/>
    </person>
    <person id="ped38" depart="105.38" type="ped_pedestrian">
        <walk from="766633591" to="232079775#1"/>
    </person>
    <person id="ped39" depart="108.15" type="ped_pedestrian">
        <walk from="119238384#0" to="119238380#1"/>
    </person>
    <person id="ped40" depart="110.93" type="ped_pedestrian">
        <walk from="23770807" to="119238384#0"/>
    </person>
    <person id="ped41" depart="113.70" type="ped_pedestrian">
        <walk from="245021868#0" to="70013953"/>
    </person>
    <person id="ped42" depart="116.47" type="ped_pedestrian">
        <walk from="205981089#1" to="-308038298#0"/>
    </person>
    <person id="ped43" depart="119.25" type="ped_pedestrian">
        <walk from="942676266" to="23647410#1"/>
    </person>
    <person id="ped44" depart="122.02" type="ped_pedestrian">
        <walk from="-205981089#0" to="-125496894"/>
    </person>
    <person id="ped45" depart="124.79" type="ped_pedestrian">
        <walk from="-205981089#2" to="27009359"/>
    </person>
    <person id="ped46" depart="127.57" type="ped_pedestrian">
        <walk from="543523320#1" to="22878052"/>
    </person>
    <person id="ped47" depart="130.34" type="ped_pedestrian">
        <walk from="-125496897#1" to="182932595"/>
    </person>
    <person id="ped48" depart="133.11" type="ped_pedestrian">
        <walk from="942676266" to="23647457"/>
    </person>
    <person id="ped49" depart="135.89" type="ped_pedestrian">
        <walk from="902475336#1" to="669156737#0"/>
    </person>
    <person id="ped50" depart="138.66" type="ped_pedestrian">
        <walk from="-125445875" to="448266583"/>
    </person>
    <person id="ped51" depart="141.43" type="ped_pedestrian">
        <walk from="44499684#0" to="237119282"/>
    </person>
    <person id="ped52" depart="144.20" type="ped_pedestrian">
        <walk from="119238384#1" to="28869538#1"/>
    </person>
    <person id="ped53" depart="146.98" type="ped_pedestrian">
        <walk from="-209790457#0" to="229193340#1"/>
    </person>
    <person id="ped54" depart="149.75" type="ped_pedestrian">
        <walk from="232079775#1" to="783025570"/>
    </person>
    <person id="ped55" depart="152.52" type="ped_pedestrian">
        <walk from="69546522" to="119238384#0"/>
    </person>
    <person id="ped56" depart="155.30" type="ped_pedestrian">
        <walk from="23647410#0" to="-23770815"/>
    </person>
    <person id="ped57" depart="158.07" type="ped_pedestrian">
        <walk from="766633591" to="669726790"/>
    </person>
    <person id="ped58" depart="160.84" type="ped_pedestrian">
        <walk from="125445934#1" to="28869538#1"/>
    </person>
    <person id="ped59" depart="163.62" type="ped_pedestrian">
        <walk from="255865983" to="-237119282"/>
    </person>
    <person id="ped60" depart="166.39" type="ped_pedestrian">
        <walk from="452252352#0" to="237119282"/>
    </person>
    <person id="ped61" depart="169.16" type="ped_pedestrian">
        <walk from="5013517#0" to="23647457"/>
    </person>
    <person id="ped62" depart="171.94" type="ped_pedestrian">
        <walk from="-119238385" to="125496894"/>
    </person>
    <person id="ped63" depart="174.71" type="ped_pedestrian">
        <walk from="-125445934#0" to="778823267"/>
    </person>
    <person id="ped64" depart="177.48" type="ped_pedestrian">
        <walk from="69546522" to="668307640#0"/>
    </person>
    <person id="ped65" depart="180.26" type="ped_pedestrian">
        <walk from="125496883" to="-125496897#0"/>
    </person>
    <person id="ped66" depart="183.03" type="ped_pedestrian">
        <walk from="69546522" to="778823270"/>
    </person>
    <person id="ped67" depart="185.80" type="ped_pedestrian">
        <walk from="-130848152#2" to="232188959"/>
    </person>
    <person id="ped68" depart="188.58" type="ped_pedestrian">
        <walk from="-125496897#2" to="452252352#0"/>
    </person>
    <person id="ped69" depart="191.35" type="ped_pedestrian">
        <walk from="452252352#1" to="-229193340#1"/>
    </person>
    <person id="ped70" depart="194.12" type="ped_pedestrian">
        <walk from="232079825#2" to="237119283#1"/>
    </person>
    <person id="ped71" depart="196.90" type="ped_pedestrian">
        <walk from="119238384#0" to="669726790"/>
    </person>
    <person id="ped72" depart="199.67" type="ped_pedestrian">
        <walk from="229193247" to="-255865984"/>
    </person>
    <person id="ped73" depart="202.44" type="ped_pedestrian">
        <walk from="237119282" to="448266584"/>
    </person>
    <person id="ped74" depart="205.21" type="ped_pedestrian">
        <walk from="-252858180" to="125496892"/>
    </person>
    <person id="ped75" depart="207.99" type="ped_pedestrian">
        <walk from="942676266" to="308038298#0"/>
    </person>
    <person id="ped76" depart="210.76" type="ped_pedestrian">
        <walk from="229193341" to="23647420"/>
    </person>
    <person id="ped77" depart="213.53" type="ped_pedestrian">
        <walk from="-229193340#0" to="-766633591"/>
    </person>
    <person id="ped78" depart="216.31" type="ped_pedestrian">
        <walk from="125496897#1" to="245021868#1"/>
    </person>
    <person id="ped79" depart="219.08" type="ped_pedestrian">
        <walk from="-778823268#1" to="-308038298#0"/>
    </person>
    <person id="ped80" depart="221.85" type="ped_pedestrian">
        <walk from="-125496897#2" to="28869538#0"/>
    </person>
    <person id="ped81" depart="224.63" type="ped_pedestrian">
        <walk from="-766633591" to="723802758"/>
    </person>
    <person id="ped82" depart="227.40" type="ped_pedestrian">
        <walk from="669156737#0" to="-125496897#2"/>
    </person>
    <person id="ped83" depart="230.17" type="ped_pedestrian">
        <walk from="119238380#0" to="407982022#2"/>
    </person>
    <person id="ped84" depart="232.95" type="ped_pedestrian">
        <walk from="-255865984" to="-229193340#1"/>
    </person>
    <person id="ped85" depart="235.72" type="ped_pedestrian">
        <walk from="778823268#0" to="23781788"/>
    </person>
    <person id="ped86" depart="238.49" type="ped_pedestrian">
        <walk from="232079775#4" to="5013517#0"/>
    </person>
    <person id="ped87" depart="241.27" type="ped_pedestrian">
        <walk from="668307633#3" to="-245021868#0"/>
    </person>
    <person id="ped88" depart="244.04" type="ped_pedestrian">
        <walk from="-205981089#1" to="229193340#1"/>
    </person>
    <person id="ped89" depart="246.81" type="ped_pedestrian">
        <walk from="229193247" to="232079775#4"/>
    </person>
    <person id="ped90" depart="249.59" type="ped_pedestrian">
        <walk from="448266584" to="407982022#2"/>
    </person>
    <person id="ped91" depart="252.36" type="ped_pedestrian">
        <walk from="902475336#2" to="-205981089#1"/>
    </person>
    <person id="ped92" depart="255.13" type="ped_pedestrian">
        <walk from="205981089#2" to="125496897#1"/>
    </person>
    <person id="ped93" depart="257.91" type="ped_pedestrian">
        <walk from="669156737#0" to="119238380#1"/>
    </person>
    <person id="ped94" depart="260.68" type="ped_pedestrian">
        <walk from="-245021868#0" to="231435896"/>
    </person>
    <person id="ped95" depart="263.45" type="ped_pedestrian">
        <walk from="22878052" to="119238385"/>
    </person>
    <person id="ped96" depart="266.22" type="ped_pedestrian">
        <walk from="119238380#1" to="778823266"/>
    </person>
    <person id="ped97" depart="269.00" type="ped_pedestrian">
        <walk from="229193341" to="669156737#0"/>
    </person>
    <person id="ped98" depart="271.77" type="ped_pedestrian">
        <walk from="237119283#1" to="-125496894"/>
    </person>
    <person id="ped99" depart="274.54" type="ped_pedestrian">
        <walk from="942676266" to="668307640#0"/>
    </person>
    <person id="ped100" depart="277.32" type="ped_pedestrian">
        <walk from="902475336#0" to="778823267"/>
    </person>
    <person id="ped101" depart="280.09" type="ped_pedestrian">
        <walk from="668307641" to="-237119283#1"/>
    </person>
    <person id="ped102" depart="282.86" type="ped_pedestrian">
        <walk from="232188959" to="-255865984"/>
    </person>
    <person id="ped103" depart="285.64" type="ped_pedestrian">
        <walk from="205981089#2" to="-125496897#0"/>
    </person>
    <person id="ped104" depart="288.41" type="ped_pedestrian">
        <walk from="182932595" to="902475336#3"/>
    </person>
    <person id="ped105" depart="291.18" type="ped_pedestrian">
        <walk from="119238384#0" to="5013517#0"/>
    </person>
    <person id="ped106" depart="293.96" type="ped_pedestrian">
        <walk from="232079775#1" to="229193247"/>
    </person>
    <person id="ped107" depart="296.73" type="ped_pedestrian">
        <walk from="783025571" to="942676266"/>
    </person>
    <person id="ped108" depart="299.50" type="ped_pedestrian">
        <walk from="23770807" to="448266581#2"/>
    </person>
    <person id="ped109" depart="302.28" type="ped_pedestrian">
        <walk from="-237119282" to="125445934#1"/>
    </person>
    <person id="ped110" depart="305.05" type="ped_pedestrian">
        <walk from="902475336#0" to="245021868#0"/>
    </person>
    <person id="ped111" depart="307.82" type="ped_pedestrian">
        <walk from="237119283#0" to="448266586"/>
    </person>
    <person id="ped112" depart="310.60" type="ped_pedestrian">
        <walk from="-125496897#0" to="245021868#0"/>
    </person>
    <person id="ped113" depart="313.37" type="ped_pedestrian">
        <walk from="23647410#0" to="668307642"/>
    </person>
    <person id="ped114" depart="316.14" type="ped_pedestrian">
        <walk from="-237119283#0" to="783025571"/>
    </person>
    <person id="ped115" depart="318.91" type="ped_pedestrian">
        <walk from="-130848152#1" to="-245021868#0"/>
    </person>
    <person id="ped116" depart="321.69" type="ped_pedestrian">
        <walk from="252858180" to="407982022#3"/>
    </person>
    <person id="ped117" depart="324.46" type="ped_pedestrian">
        <walk from="-778823268#1" to="-229193340#0"/>
    </person>
    <person id="ped118" depart="327.23" type="ped_pedestrian">
        <walk from="69546524" to="119238380#1"/>
    </person>
    <person id="ped119" depart="330.01" type="ped_pedestrian">
        <walk from="252858180" to="255865984"/>
    </person>
    <person id="ped120" depart="332.78" type="ped_pedestrian">
        <walk from="22878052" to="245021868#0"/>
    </person>
    <person id="ped121" depart="335.55" type="ped_pedestrian">
        <walk from="23647432" to="778823268#0"/>
    </person>
    <person id="ped122" depart="338.33" type="ped_pedestrian">
        <walk from="-252858180" to="448266581#2"/>
    </person>
    <person id="ped123" depart="341.10" type="ped_pedestrian">
        <walk from="119238380#0" to="205981089#1"/>
    </person>
    <person id="ped124" depart="343.87" type="ped_pedestrian">
        <walk from="407982022#2" to="125445934#1"/>
    </person>
    <person id="ped125" depart="346.65" type="ped_pedestrian">
        <walk from="125496892" to="448792279#0"/>
    </person>
    <person id="ped126" depart="349.42" type="ped_pedestrian">
        <walk from="-125496897#2" to="232079775#1"/>
    </person>
    <person id="ped127" depart="352.19" type="ped_pedestrian">
        <walk from="942676266" to="942676266"/>
    </person>
    <person id="ped128" depart="354.97" type="ped_pedestrian">
        <walk from="-125496897#2" to="-255865984"/>
    </person>
    <person id="ped129" depart="357.74" type="ped_pedestrian">
        <walk from="119238384#0" to="778823267"/>
    </person>
    <person id="ped130" depart="360.51" type="ped_pedestrian">
        <walk from="69546522" to="69546522"/>
    </person>
    <person id="ped131" depart="363.29" type="ped_pedestrian">
        <walk from="131471728#0" to="-237119283#0"/>
    </person>
    <person id="ped132" depart="366.06" type="ped_pedestrian">
        <walk from="668307640#0" to="44499684#3"/>
    </person>
    <person id="ped133" depart="368.83" type="ped_pedestrian">
        <walk from="255865983" to="902475336#3"/>
    </person>
    <person id="ped134" depart="371.61" type="ped_pedestrian">
        <walk from="407982022#0" to="-125445875"/>
    </person>
    <person id="ped135" depart="374.38" type="ped_pedestrian">
        <walk from="668307639#0" to="125445934#1"/>
    </person>
    <person id="ped136" depart="377.15" type="ped_pedestrian">
        <walk from="407982022#1" to="778823268#0"/>
    </person>
    <person id="ped137" depart="379.92" type="ped_pedestrian">
        <walk from="-231435896" to="-209790457#0"/>
    </person>
    <person id="ped138" depart="382.70" type="ped_pedestrian">
        <walk from="-205981089#2" to="237119283#1"/>
    </person>
    <person id="ped139" depart="385.47" type="ped_pedestrian">
        <walk from="119238384#1" to="255865930"/>
    </person>
    <person id="ped140" depart="388.24" type="ped_pedestrian">
        <walk from="448266581#2" to="-252858180"/>
    </person>
    <person id="ped141" depart="391.02" type="ped_pedestrian">
        <walk from="28869538#0" to="119238384#0"/>
    </person>
    <person id="ped142" depart="393.79" type="ped_pedestrian">
        <walk from="232188959" to="723802758"/>
    </person>
    <person id="ped143" depart="396.56" type="ped_pedestrian">
        <walk from="668307641" to="-205981089#0"/>
    </person>
    <person id="ped144" depart="399.34" type="ped_pedestrian">
        <walk from="229193247" to="119238385"/>
    </person>
    <person id="ped145" depart="402.11" type="ped_pedestrian">
        <walk from="28869538#1" to="119238384#0"/>
    </person>
    <person id="ped146" depart="404.88" type="ped_pedestrian">
        <walk from="448266586" to="237119283#1"/>
    </person>
    <person id="ped147" depart="407.66" type="ped_pedestrian">
        <walk from="229193247" to="-125445875"/>
    </person>
    <person id="ped148" depart="410.43" type="ped_pedestrian">
        <walk from="-130848152#1" to="69546523"/>
    </person>
    <person id="ped149" depart="413.20" type="ped_pedestrian">
        <walk from="723802758" to="237119283#0"/>
    </person>
    <person id="ped150" depart="415.98" type="ped_pedestrian">
        <walk from="668307640#0" to="245021868#0"/>
    </person>
    <person id="ped151" depart="418.75" type="ped_pedestrian">
        <walk from="-23647432" to="-229193340#1"/>
    </person>
    <person id="ped152" depart="421.52" type="ped_pedestrian">
        <walk from="125496883" to="70013953"/>
    </person>
    <person id="ped153" depart="424.30" type="ped_pedestrian">
        <walk from="668307633#0" to="669156737#0"/>
    </person>
    <person id="ped154" depart="427.07" type="ped_pedestrian">
        <walk from="70013953" to="-255865984"/>
    </person>
    <person id="ped155" depart="429.84" type="ped_pedestrian">
        <walk from="119238380#1" to="-205981089#1"/>
    </person>
    <person id="ped156" depart="432.61" type="ped_pedestrian">
        <walk from="5013517#0" to="69546523"/>
    </person>
    <person id="ped157" depart="435.39" type="ped_pedestrian">
        <walk from="205981089#2" to="255865984"/>
    </person>
    <person id="ped158" depart="438.16" type="ped_pedestrian">
        <walk from="-237119282" to="778823267"/>
    </person>
    <person id="ped159" depart="440.93" type="ped_pedestrian">
        <walk from="669156737#0" to="902475336#1"/>
    </person>
    <person id="ped160" depart="443.71" type="ped_pedestrian">
        <walk from="668307633#3" to="69546522"/>
    </person>
    <person id="ped161" depart="446.48" type="ped_pedestrian">
        <walk from="-125445934#1" to="448266585"/>
    </person>
    <person id="ped162" depart="449.25" type="ped_pedestrian">
        <walk from="125496897#0" to="778823267"/>
    </person>
    <person id="ped163" depart="452.03" type="ped_pedestrian">
        <walk from="668307633#2" to="669156737#0"/>
    </person>
    <person id="ped164" depart="454.80" type="ped_pedestrian">
        <walk from="668307633#3" to="119238384#1"/>
    </person>
    <person id="ped165" depart="457.57" type="ped_pedestrian">
        <walk from="543523320#1" to="-205981089#2"/>
    </person>
    <person id="ped166" depart="460.35" type="ped_pedestrian">
        <walk from="669726790" to="668307642"/>
    </person>
    <person id="ped167" depart="463.12" type="ped_pedestrian">
        <walk from="-766633591" to="668307639#0"/>
    </person>
    <person id="ped168" depart="465.89" type="ped_pedestrian">
        <walk from="232079775#2" to="125496883"/>
    </person>
    <person id="ped169" depart="468.67" type="ped_pedestrian">
        <walk from="668307633#0" to="-766633591"/>
    </person>
    <person id="ped170" depart="471.44" type="ped_pedestrian">
        <walk from="-125445934#1" to="-245021868#1"/>
    </person>
    <person id="ped171" depart="474.21" type="ped_pedestrian">
        <walk from="125496897#0" to="669156737#0"/>
    </person>
    <person id="ped172" depart="476.99" type="ped_pedestrian">
        <walk from="902475336#0" to="119238385"/>
    </person>
    <person id="ped173" depart="479.76" type="ped_pedestrian">
        <walk from="28869538#1" to="205981089#1"/>
    </person>
    <person id="ped174" depart="482.53" type="ped_pedestrian">
        <walk from="902475336#2" to="237119282"/>
    </person>
    <person id="ped175" depart="485.31" type="ped_pedestrian">
        <walk from="778823268#0" to="-209790457#0"/>
    </person>
    <person id="ped176" depart="488.08" type="ped_pedestrian">
        <walk from="902475336#1" to="-23770815"/>
    </person>
    <person id="ped177" depart="490.85" type="ped_pedestrian">
        <walk from="783025571" to="119238384#0"/>
    </person>
    <person id="ped178" depart="493.62" type="ped_pedestrian">
        <walk from="-205981089#2" to="229193340#1"/>
    </person>
    <person id="ped179" depart="496.40" type="ped_pedestrian">
        <walk from="448266584" to="125496892"/>
    </person>
    <person id="ped180" depart="499.17" type="ped_pedestrian">
        <walk from="255865930" to="23647420"/>
    </person>
    <person id="ped181" depart="501.94" type="ped_pedestrian">
        <walk from="205981089#0" to="23781788"/>
    </person>
    <person id="ped182" depart="504.72" type="ped_pedestrian">
        <walk from="119238380#2" to="448266581#0"/>
    </person>
    <person id="ped183" depart="507.49" type="ped_pedestrian">
        <walk from="-119238385" to="778823266"/>
    </person>
    <person id="ped184" depart="510.26" type="ped_pedestrian">
        <walk from="237119282" to="448266583"/>
    </person>
    <person id="ped185" depart="513.04" type="ped_pedestrian">
        <walk from="448266586" to="407982022#2"/>
    </person>
    <person id="ped186" depart="515.81" type="ped_pedestrian">
        <walk from="131471728#0" to="-125496897#2"/>
    </person>
    <person id="ped187" depart="518.58" type="ped_pedestrian">
        <walk from="407982022#1" to="125496897#0"/>
    </person>
    <person id="ped188" depart="521.36" type="ped_pedestrian">
        <walk from="125496892" to="668307641"/>
    </person>
    <person id="ped189" depart="524.13" type="ped_pedestrian">
        <walk from="448266583" to="125445934#1"/>
    </person>
    <person id="ped190" depart="526.90" type="ped_pedestrian">
        <walk from="125496883" to="209790457#0"/>
    </person>
    <person id="ped191" depart="529.68" type="ped_pedestrian">
        <walk from="205981089#2" to="125445934#0"/>
    </person>
    <person id="ped192" depart="532.45" type="ped_pedestrian">
        <walk from="-229193340#1" to="22878052"/>
    </person>
    <person id="ped193" depart="535.22" type="ped_pedestrian">
        <walk from="778823268#0" to="407982022#3"/>
    </person>
    <person id="ped194" depart="538.00" type="ped_pedestrian">
        <walk from="70013953" to="255865984"/>
    </person>
    <person id="ped195" depart="540.77" type="ped_pedestrian">
        <walk from="125445934#1" to="237119283#0"/>
    </person>
    <person id="ped196" depart="543.54" type="ped_pedestrian">
        <walk from="-119238385" to="125445875"/>
    </person>
    <person id="ped197" depart="546.32" type="ped_pedestrian">
        <walk from="229193340#1" to="245021868#0"/>
    </person>
    <person id="ped198" depart="549.09" type="ped_pedestrian">
        <walk from="407982022#0" to="232079775#2"/>
    </person>
    <person id="ped199" depart="551.86" type="ped_pedestrian">
        <walk from="229193341" to="-255865984"/>
    </person>
    <person id="ped200" depart="554.63" type="ped_pedestrian">
        <walk from="232079775#4" to="70013953"/>
    </person>
    <person id="ped201" depart="557.41" type="ped_pedestrian">
        <walk from="668307633#0" to="-237119283#1"/>
    </person>
    <person id="ped202" depart="560.18" type="ped_pedestrian">
        <walk from="-130848152#2" to="23647420"/>
    </person>
    <person id="ped203" depart="562.95" type="ped_pedestrian">
        <walk from="28869538#0" to="125496897#1"/>
    </person>
    <person id="ped204" depart="565.73" type="ped_pedestrian">
        <walk from="668307639#0" to="448792279#0"/>
    </person>
    <person id="ped205" depart="568.50" type="ped_pedestrian">
        <walk from="407982022#2" to="-766633591"/>
    </person>
    <person id="ped206" depart="571.27" type="ped_pedestrian">
        <walk from="-245021868#1" to="-125445934#1"/>
    </person>
    <person id="ped207" depart="574.05" type="ped_pedestrian">
        <walk from="119238380#1" to="232079825#2"/>
    </person>
    <person id="ped208" depart="576.82" type="ped_pedestrian">
        <walk from="668307641" to="-125496897#2"/>
    </person>
    <person id="ped209" depart="579.59" type="ped_pedestrian">
        <walk from="209790457#0" to="28869538#0"/>
    </person>
    <person id="ped210" depart="582.37" type="ped_pedestrian">
        <walk from="-245021868#1" to="44499684#3"/>
    </person>
    <person id="ped211" depart="585.14" type="ped_pedestrian">
        <walk from="23554761" to="119238380#0"/>
    </person>
    <person id="ped212" depart="587.91" type="ped_pedestrian">
        <walk from="407982022#0" to="-119238385"/>
    </person>
    <person id="ped213" depart="590.69" type="ped_pedestrian">
        <walk from="448792279#0" to="452252352#1"/>
    </person>
    <person id="ped214" depart="593.46" type="ped_pedestrian">
        <walk from="-205981089#2" to="229193247"/>
    </person>
    <person id="ped215" depart="596.23" type="ped_pedestrian">
        <walk from="-23770807" to="783025571"/>
    </person>
    <person id="ped216" depart="599.01" type="ped_pedestrian">
        <walk from="23647420" to="-125496894"/>
    </person>
    <person id="ped217" depart="601.78" type="ped_pedestrian">
        <walk from="119238380#1" to="668307641"/>
    </person>
    <person id="ped218" depart="604.55" type="ped_pedestrian">
        <walk from="232079775#1" to="668307633#2"/>
    </person>
    <person id="ped219" depart="607.32" type="ped_pedestrian">
        <walk from="407982022#2" to="902475336#3"/>
    </person>
    <person id="ped220" depart="610.10" type="ped_pedestrian">
        <walk from="252858180" to="783025570"/>
    </person>
    <person id="ped221" depart="612.87" type="ped_pedestrian">
        <walk from="69546524" to="255865983"/>
    </person>
    <person id="ped222" depart="615.64" type="ped_pedestrian">
        <walk from="448266583" to="23647410#1"/>
    </person>
    <person id="ped223" depart="618.42" type="ped_pedestrian">
        <walk from="668307640#0" to="237119283#0"/>
    </person>
    <person id="ped224" depart="621.19" type="ped_pedestrian">
        <walk from="70013953" to="448266586"/>
    </person>
    <person id="ped225" depart="623.96" type="ped_pedestrian">
        <walk from="232079825#2" to="119238380#2"/>
    </person>
    <person id="ped226" depart="626.74" type="ped_pedestrian">
        <walk from="119238380#1" to="28869538#1"/>
    </person>
    <person id="ped227" depart="629.51" type="ped_pedestrian">
        <walk from="452252352#1" to="23647432"/>
    </person>
    <person id="ped228" depart="632.28" type="ped_pedestrian">
        <walk from="27009359" to="119238385"/>
    </person>
    <person id="ped229" depart="635.06" type="ped_pedestrian">
        <walk from="-130848152#1" to="125445875"/>
    </person>
    <person id="ped230" depart="637.83" type="ped_pedestrian">
        <walk from="119238384#1" to="125496894"/>
    </person>
    <person id="ped231" depart="640.60" type="ped_pedestrian">
        <walk from="237119282" to="-231435896"/>
    </person>
    <person id="ped232" depart="643.38" type="ped_pedestrian">
        <walk from="-778823268#1" to="44499684#2"/>
    </person>
    <person id="ped233" depart="646.15" type="ped_pedestrian">
        <walk from="448266581#0" to="-125496897#1"/>
    </person>