<?xml version="1.0" encoding="UTF-8"?>

<!-- generated on 2021-11-16 10:39:08 by Eclipse SUMO netconvert Version 1.10.0
<configuration xmlns:xsi="http://www.w3.org/2001/XMLSchema-instance" xsi:noNamespaceSchemaLocation="http://sumo.dlr.de/xsd/netconvertConfiguration.xsd">

    <input>
        <type-files value="C:\Program%20Files%20(x86)\Eclipse\Sumo\data\typemap\osmNetconvert.typ.xml,C:\Program%20Files%20(x86)\Eclipse\Sumo\data\typemap\osmNetconvertUrbanDe.typ.xml,C:\Program%20Files%20(x86)\Eclipse\Sumo\data\typemap\osmNetconvertPedestrians.typ.xml,C:\Program%20Files%20(x86)\Eclipse\Sumo\data\typemap\osmNetconvertBicycle.typ.xml"/>
        <osm-files value="osm_bbox.osm.xml"/>
    </input>

    <output>
        <output-file value="osm.net.xml"/>
        <output.street-names value="true"/>
        <output.original-names value="true"/>
    </output>

    <projection>
        <proj.utm value="true"/>
    </projection>

    <processing>
        <geometry.remove value="true"/>
        <roundabouts.guess value="true"/>
    </processing>

    <tls_building>
        <tls.discard-simple value="true"/>
        <tls.join value="true"/>
        <tls.guess-signals value="true"/>
        <tls.default-type value="actuated"/>
    </tls_building>

    <ramp_guessing>
        <ramps.guess value="true"/>
    </ramp_guessing>

    <junctions>
        <junctions.join value="true"/>
        <junctions.corner-detail value="5"/>
    </junctions>

    <pedestrian>
        <crossings.guess value="true"/>
    </pedestrian>

    <report>
        <verbose value="true"/>
        <aggregate-warnings value="5"/>
    </report>

</configuration>
-->

<net version="1.9" junctionCornerDetail="5" walkingareas="true" limitTurnSpeed="5.50" xmlns:xsi="http://www.w3.org/2001/XMLSchema-instance" xsi:noNamespaceSchemaLocation="http://sumo.dlr.de/xsd/net_file.xsd">

    <location netOffset="-427288.81,-4919772.90" convBoundary="0.00,0.00,2579.98,5910.93" origBoundary="26.086093,44.427738,26.118652,44.481060" projParameter="+proj=utm +zone=35 +ellps=WGS84 +datum=WGS84 +units=m +no_defs"/>

    <type id="cycleway.lane" allow="bicycle" bikeLaneWidth="1.00"/>
    <type id="cycleway.opposite_lane" allow="bicycle" bikeLaneWidth="1.00"/>
    <type id="cycleway.opposite_track" allow="bicycle" bikeLaneWidth="1.50"/>
    <type id="cycleway.track" allow="bicycle" bikeLaneWidth="1.50"/>
    <type id="highway.bridleway" priority="1" numLanes="1" speed="2.78" allow="pedestrian" oneway="1" width="2.00"/>
    <type id="highway.bus_guideway" priority="1" numLanes="1" speed="13.89" allow="bus" oneway="1"/>
    <type id="highway.cycleway" priority="1" numLanes="1" speed="8.33" allow="bicycle" oneway="0" width="1.00"/>
    <type id="highway.footway" priority="1" numLanes="1" speed="2.78" allow="pedestrian" oneway="1" width="2.00"/>
    <type id="highway.ford" priority="1" numLanes="1" speed="2.78" allow="army" oneway="0"/>
    <type id="highway.living_street" priority="2" numLanes="1" speed="2.78" disallow="tram rail_urban rail rail_electric rail_fast ship" oneway="0"/>
    <type id="highway.motorway" priority="14" numLanes="2" speed="27.78" allow="private emergency authority army vip passenger hov taxi bus coach delivery truck trailer motorcycle evehicle custom1 custom2" oneway="1"/>
    <type id="highway.motorway_link" priority="9" numLanes="1" speed="16.67" allow="private emergency authority army vip passenger hov taxi bus coach delivery truck trailer motorcycle evehicle custom1 custom2" oneway="1"/>
    <type id="highway.path" priority="1" numLanes="1" speed="2.78" allow="pedestrian bicycle" oneway="0" width="2.00"/>
    <type id="highway.pedestrian" priority="1" numLanes="1" speed="2.78" allow="pedestrian" oneway="1" width="2.00"/>
    <type id="highway.primary" priority="12" numLanes="2" speed="13.89" disallow="pedestrian tram rail_urban rail rail_electric rail_fast ship" oneway="0" sidewalkWidth="3.00"/>
    <type id="highway.primary_link" priority="7" numLanes="1" speed="13.89" disallow="pedestrian tram rail_urban rail rail_electric rail_fast ship" oneway="0" sidewalkWidth="3.00"/>
    <type id="highway.raceway" priority="15" numLanes="2" speed="83.33" allow="vip" oneway="0"/>
    <type id="highway.residential" priority="3" numLanes="1" speed="13.89" disallow="pedestrian tram rail_urban rail rail_electric rail_fast ship" oneway="0" sidewalkWidth="2.00"/>
    <type id="highway.secondary" priority="11" numLanes="1" speed="13.89" disallow="pedestrian tram rail_urban rail rail_electric rail_fast ship" oneway="0" sidewalkWidth="3.00"/>
    <type id="highway.secondary_link" priority="6" numLanes="1" speed="13.89" disallow="pedestrian tram rail_urban rail rail_electric rail_fast ship" oneway="0" sidewalkWidth="3.00"/>
    <type id="highway.service" priority="1" numLanes="1" speed="5.56" allow="pedestrian delivery bicycle" oneway="0"/>
    <type id="highway.stairs" priority="1" numLanes="1" speed="1.39" allow="pedestrian" oneway="1" width="2.00"/>
    <type id="highway.step" priority="1" numLanes="1" speed="1.39" allow="pedestrian" oneway="1" width="2.00"/>
    <type id="highway.steps" priority="1" numLanes="1" speed="1.39" allow="pedestrian" oneway="1" width="2.00"/>
    <type id="highway.tertiary" priority="10" numLanes="1" speed="13.89" disallow="pedestrian tram rail_urban rail rail_electric rail_fast ship" oneway="0" sidewalkWidth="3.00"/>
    <type id="highway.tertiary_link" priority="5" numLanes="1" speed="13.89" disallow="pedestrian tram rail_urban rail rail_electric rail_fast ship" oneway="0" sidewalkWidth="2.00"/>
    <type id="highway.track" priority="1" numLanes="1" speed="5.56" allow="pedestrian motorcycle moped bicycle" oneway="0"/>
    <type id="highway.trunk" priority="13" numLanes="2" speed="13.89" disallow="pedestrian bicycle tram rail_urban rail rail_electric rail_fast ship" oneway="0"/>
    <type id="highway.trunk_link" priority="8" numLanes="1" speed="13.89" disallow="pedestrian bicycle tram rail_urban rail rail_electric rail_fast ship" oneway="0"/>
    <type id="highway.unclassified" priority="4" numLanes="1" speed="13.89" disallow="pedestrian tram rail_urban rail rail_electric rail_fast ship" oneway="0" sidewalkWidth="2.00"/>
    <type id="highway.unsurfaced" priority="1" numLanes="1" speed="8.33" disallow="tram rail_urban rail rail_electric rail_fast ship" oneway="0"/>
    <type id="railway.highspeed" priority="21" numLanes="1" speed="69.44" allow="rail_fast" oneway="1"/>
    <type id="railway.light_rail" priority="19" numLanes="1" speed="27.78" allow="rail_urban" oneway="1"/>
    <type id="railway.preserved" priority="16" numLanes="1" speed="27.78" allow="rail" oneway="1"/>
    <type id="railway.rail" priority="20" numLanes="1" speed="44.44" allow="rail" oneway="1"/>
    <type id="railway.subway" priority="18" numLanes="1" speed="27.78" allow="rail_urban" oneway="1"/>
    <type id="railway.tram" priority="17" numLanes="1" speed="13.89" allow="tram" oneway="1"/>

    <edge id=":117335431_0" function="internal">
        <lane id=":117335431_0_0" index="0" disallow="pedestrian tram rail_urban rail rail_electric rail_fast ship" speed="7.94" length="5.55" shape="712.93,2245.49 711.82,2246.81 711.24,2248.76 711.22,2250.54"/>
    </edge>
    <edge id=":117335431_1" function="internal">
        <lane id=":117335431_1_0" index="0" disallow="pedestrian tram rail_urban rail rail_electric rail_fast ship" speed="16.67" length="8.64" shape="712.93,2245.49 705.92,2250.56"/>
        <lane id=":117335431_1_1" index="1" disallow="pedestrian tram rail_urban rail rail_electric rail_fast ship" speed="16.67" length="8.64" shape="711.05,2242.90 704.04,2247.96"/>
        <lane id=":117335431_1_2" index="2" disallow="pedestrian tram rail_urban rail rail_electric rail_fast ship" speed="16.67" length="8.64" shape="709.17,2240.31 702.17,2245.37"/>
    </edge>
    <edge id=":117335431_4" function="internal">
        <lane id=":117335431_4_0" index="0" disallow="pedestrian tram rail_urban rail rail_electric rail_fast ship" speed="7.94" length="4.03" shape="711.22,2250.54 711.20,2251.33 711.71,2254.53"/>
    </edge>
    <edge id=":117335431_c0" function="crossing" crossingEdges="182932595">
        <lane id=":117335431_c0_0" index="0" allow="pedestrian" speed="1.00" length="3.20" width="4.00" shape="712.84,2252.23 709.72,2252.92"/>
    </edge>
    <edge id=":117335431_w0" function="walkingarea">
        <lane id=":117335431_w0_0" index="0" allow="pedestrian" speed="1.00" length="4.29" width="4.00" shape="713.27,2254.19 715.23,2253.76 715.63,2249.21 713.87,2246.78 713.32,2247.38 712.95,2248.23 712.76,2249.33 712.75,2250.69 712.92,2252.31"/>
    </edge>
    <edge id=":117335431_w1" function="walkingarea">
        <lane id=":117335431_w1_0" index="0" allow="pedestrian" speed="1.00" length="1.99" width="4.00" shape="706.85,2251.85 708.61,2254.29 710.15,2254.88 709.77,2253.50 709.33,2252.47 708.81,2251.79 708.23,2251.46 707.57,2251.48"/>
    </edge>
    <edge id=":125431052_0" function="internal">
        <lane id=":125431052_0_0" index="0" disallow="pedestrian tram rail_urban rail rail_electric rail_fast ship" speed="10.75" length="11.60" shape="820.88,2176.34 816.77,2175.49 813.49,2175.11 811.07,2175.20 809.49,2175.76"/>
        <lane id=":125431052_0_1" index="1" disallow="pedestrian tram rail_urban rail rail_electric rail_fast ship" speed="12.02" length="14.63" shape="822.01,2173.32 817.05,2172.34 813.00,2171.98 809.88,2172.24 807.68,2173.12"/>
        <lane id=":125431052_0_2" index="2" disallow="pedestrian tram rail_urban rail rail_electric rail_fast ship" speed="13.18" length="17.67" shape="823.14,2170.30 817.33,2169.18 812.51,2168.84 808.69,2169.27 805.87,2170.48"/>
    </edge>
    <edge id=":125431052_3" function="internal">
        <lane id=":125431052_3_0" index="0" disallow="pedestrian tram rail_urban rail rail_electric rail_fast ship" speed="16.67" length="12.70" shape="819.89,2168.22 809.49,2175.76"/>
        <lane id=":125431052_3_1" index="1" disallow="pedestrian tram rail_urban rail rail_electric rail_fast ship" speed="16.67" length="12.70" shape="817.96,2165.67 807.68,2173.12"/>
        <lane id=":125431052_3_2" index="2" disallow="pedestrian tram rail_urban rail rail_electric rail_fast ship" speed="16.67" length="12.70" shape="816.03,2163.11 805.87,2170.48"/>
    </edge>
    <edge id=":125431052_w0" function="walkingarea">
        <lane id=":125431052_w0_0" index="0" allow="pedestrian" speed="1.00" length="8.60" width="3.00" shape="810.39,2177.08 812.09,2179.55 819.44,2180.73 820.14,2177.81 817.90,2177.32 815.66,2176.92 813.79,2176.69 812.28,2176.64 811.15,2176.77"/>
    </edge>
    <edge id=":1340385601_0" function="internal">
        <lane id=":1340385601_0_0" index="0" disallow="pedestrian tram rail_urban rail rail_electric rail_fast ship" speed="13.55" length="17.81" shape="832.60,2102.82 836.83,2100.87 840.00,2099.58 842.40,2097.65 844.32,2093.79"/>
        <lane id=":1340385601_0_1" index="1" disallow="pedestrian tram rail_urban rail rail_electric rail_fast ship" speed="14.51" length="17.81" shape="834.16,2105.61 838.98,2103.31 842.52,2101.69 845.18,2099.33 847.35,2094.81"/>
        <lane id=":1340385601_0_2" index="2" disallow="pedestrian tram rail_urban rail rail_electric rail_fast ship" speed="15.28" length="17.81" shape="835.71,2108.41 841.13,2105.75 845.05,2103.80 847.97,2101.01 850.38,2095.84"/>
    </edge>
    <edge id=":1340385601_3" function="internal">
        <lane id=":1340385601_3_0" index="0" disallow="pedestrian tram rail_urban rail rail_electric rail_fast ship" speed="16.67" length="17.21" shape="838.32,2109.77 844.32,2093.79"/>
        <lane id=":1340385601_3_1" index="1" disallow="pedestrian tram rail_urban rail rail_electric rail_fast ship" speed="16.67" length="17.21" shape="841.30,2110.93 847.35,2094.81"/>
        <lane id=":1340385601_3_2" index="2" disallow="pedestrian tram rail_urban rail rail_electric rail_fast ship" speed="16.67" length="17.21" shape="844.29,2112.09 850.38,2095.84"/>
    </edge>
    <edge id=":1340385601_w0" function="walkingarea">
        <lane id=":1340385601_w0_0" index="0" allow="pedestrian" speed="1.00" length="12.62" width="3.00" shape="842.81,2093.27 839.96,2092.31 830.37,2098.79 831.82,2101.42 834.56,2100.11 836.84,2099.27 838.73,2098.53 840.31,2097.52 841.65,2095.89"/>
    </edge>
    <edge id=":134971067_0" function="internal">
        <lane id=":134971067_0_0" index="0" disallow="pedestrian tram rail_urban rail rail_electric rail_fast ship" speed="7.44" length="10.20" shape="859.33,2114.99 858.59,2117.92 858.69,2120.41 859.64,2122.47 861.44,2124.09"/>
    </edge>
    <edge id=":134971067_1" function="internal">
        <lane id=":134971067_1_0" index="0" disallow="pedestrian tram rail_urban rail rail_electric rail_fast ship" speed="16.67" length="17.02" shape="859.33,2114.99 853.35,2130.87"/>
        <lane id=":134971067_1_1" index="1" disallow="pedestrian tram rail_urban rail rail_electric rail_fast ship" speed="16.67" length="17.02" shape="856.33,2113.88 850.33,2129.81"/>
        <lane id=":134971067_1_2" index="2" disallow="pedestrian tram rail_urban rail rail_electric rail_fast ship" speed="16.67" length="17.02" shape="853.33,2112.77 847.31,2128.74"/>
    </edge>
    <edge id=":134971067_4" function="internal">
        <lane id=":134971067_4_0" index="0" disallow="tram rail_urban rail rail_electric rail_fast ship" speed="13.89" length="17.76" shape="846.19,2116.04 850.82,2118.19 853.41,2120.70 855.83,2123.61 859.92,2126.91"/>
    </edge>
    <edge id=":134971067_5" function="internal">
        <lane id=":134971067_5_0" index="0" disallow="pedestrian tram rail_urban rail rail_electric rail_fast ship" speed="7.67" length="13.80" shape="845.23,2119.10 848.70,2120.75 850.71,2123.09 851.25,2126.11 850.33,2129.81"/>
        <lane id=":134971067_5_1" index="1" disallow="pedestrian tram rail_urban rail rail_electric rail_fast ship" speed="6.14" length="8.44" shape="844.28,2122.15 846.37,2123.16 847.57,2124.59 847.88,2126.45 847.31,2128.74"/>
    </edge>
    <edge id=":134971067_w0" function="walkingarea">
        <lane id=":134971067_w0_0" index="0" allow="pedestrian" speed="1.00" length="0.10" width="3.20" shape="859.07,2128.27 860.77,2125.56 860.58,2125.44 862.29,2122.73"/>
    </edge>
    <edge id=":134971067_w1" function="walkingarea">
        <lane id=":134971067_w1_0" index="0" allow="pedestrian" speed="1.00" length="0.10" width="3.20" shape="846.66,2114.52 845.71,2117.57 845.71,2117.57 844.75,2120.62 844.75,2120.62 843.80,2123.68"/>
    </edge>
    <edge id=":1365573743_0" function="internal">
        <lane id=":1365573743_0_0" index="0" allow="bicycle" speed="8.33" length="3.00" width="1.00" shape="784.65,2160.02 787.09,2158.28"/>
    </edge>
    <edge id=":1365573743_1" function="internal">
        <lane id=":1365573743_1_0" index="0" allow="bicycle" speed="2.04" length="0.73" width="1.00" shape="784.65,2160.02 785.10,2160.01 785.35,2160.14"/>
    </edge>
    <edge id=":1365573743_4" function="internal">
        <lane id=":1365573743_4_0" index="0" allow="bicycle" speed="2.04" length="0.73" width="1.00" shape="785.35,2160.14 785.39,2160.41 785.23,2160.83"/>
    </edge>
    <edge id=":1365573743_2" function="internal">
        <lane id=":1365573743_2_0" index="0" allow="bicycle" speed="8.33" length="3.00" width="1.00" shape="787.67,2159.09 785.23,2160.83"/>
    </edge>
    <edge id=":1365573743_3" function="internal">
        <lane id=":1365573743_3_0" index="0" allow="bicycle" speed="2.04" length="0.73" width="1.00" shape="787.67,2159.09 787.22,2159.11 786.98,2158.98"/>
    </edge>
    <edge id=":1365573743_5" function="internal">
        <lane id=":1365573743_5_0" index="0" allow="bicycle" speed="2.04" length="0.73" width="1.00" shape="786.98,2158.98 786.93,2158.70 787.09,2158.28"/>
    </edge>
    <edge id=":1365573748_0" function="internal">
        <lane id=":1365573748_0_0" index="0" allow="bicycle" speed="2.04" length="1.46" width="1.00" shape="437.85,2415.61 437.40,2415.70 437.14,2415.62 437.05,2415.35 437.13,2414.91"/>
    </edge>
    <edge id=":1393115230_0" function="internal">
        <lane id=":1393115230_0_0" index="0" allow="delivery bicycle" speed="5.61" length="6.92" shape="1025.29,1915.80 1023.87,1915.25 1022.50,1915.53 1021.19,1916.62 1019.93,1918.54"/>
    </edge>
    <edge id=":1393115230_1" function="internal">
        <lane id=":1393115230_1_0" index="0" disallow="pedestrian tram rail_urban rail rail_electric rail_fast ship" speed="3.65" length="4.67" shape="1025.29,1915.80 1024.73,1914.47 1024.84,1913.58 1025.61,1913.14 1027.06,1913.13"/>
    </edge>
    <edge id=":1393115230_2" function="internal">
        <lane id=":1393115230_2_0" index="0" allow="delivery bicycle" speed="7.28" length="12.43" shape="1017.10,1917.05 1019.27,1913.88 1021.65,1912.17 1024.25,1911.92 1027.06,1913.13"/>
    </edge>
    <edge id=":1393115230_w0" function="walkingarea">
        <lane id=":1393115230_w0_0" index="0" allow="pedestrian" speed="1.00" length="7.79" width="3.20" shape="1027.94,1911.80 1029.05,1910.13 1015.69,1916.30 1018.51,1917.80 1018.51,1917.80 1021.34,1919.29 1023.29,1918.80 1024.40,1917.13"/>
    </edge>
    <edge id=":1393294299_0" function="internal">
        <lane id=":1393294299_0_0" index="0" allow="pedestrian delivery bicycle" speed="3.65" length="4.67" shape="1008.80,1949.39 1007.86,1950.49 1007.02,1950.79 1006.27,1950.30 1005.62,1949.01"/>
    </edge>
    <edge id=":1393299292_0" function="internal">
        <lane id=":1393299292_0_0" index="0" disallow="pedestrian tram rail_urban rail rail_electric rail_fast ship" speed="7.59" length="2.78" shape="830.65,2103.37 828.21,2102.03"/>
        <lane id=":1393299292_0_1" index="1" disallow="pedestrian tram rail_urban rail rail_electric rail_fast ship" speed="6.75" length="2.15" shape="830.65,2103.37 829.21,2101.77"/>
    </edge>
    <edge id=":1393299292_2" function="internal">
        <lane id=":1393299292_2_0" index="0" disallow="pedestrian tram rail_urban rail rail_electric rail_fast ship" speed="13.89" length="1.38" shape="830.65,2103.37 831.12,2103.12 831.51,2103.09 831.91,2103.09 832.43,2102.91"/>
        <lane id=":1393299292_2_1" index="1" disallow="pedestrian tram rail_urban rail rail_electric rail_fast ship" speed="13.89" length="1.38" shape="832.66,2105.87 833.00,2105.71 833.30,2105.75 833.60,2105.81 833.98,2105.71"/>
        <lane id=":1393299292_2_2" index="2" disallow="pedestrian tram rail_urban rail rail_electric rail_fast ship" speed="13.89" length="1.38" shape="834.66,2108.36 835.54,2108.51"/>
    </edge>
    <edge id=":1393299292_5" function="internal">
        <lane id=":1393299292_5_0" index="0" disallow="pedestrian tram rail_urban rail rail_electric rail_fast ship" speed="7.59" length="5.82" shape="828.21,2102.03 823.11,2099.23"/>
    </edge>
    <edge id=":1393299292_6" function="internal">
        <lane id=":1393299292_6_0" index="0" disallow="pedestrian tram rail_urban rail rail_electric rail_fast ship" speed="6.75" length="4.50" shape="829.21,2101.77 826.20,2098.42"/>
    </edge>
    <edge id=":1393299292_c0" function="crossing" crossingEdges="125445934#0">
        <lane id=":1393299292_c0_0" index="0" allow="pedestrian" speed="1.00" length="6.40" width="4.00" shape="822.06,2101.57 828.26,2099.95"/>
    </edge>
    <edge id=":1393299292_w0" function="walkingarea">
        <lane id=":1393299292_w0_0" index="0" allow="pedestrian" speed="1.00" length="2.73" width="4.00" shape="831.65,2101.51 830.19,2098.89 829.68,2097.51 827.75,2098.02 828.22,2099.49 828.76,2100.60 829.37,2101.36 830.06,2101.77 830.82,2101.82"/>
    </edge>
    <edge id=":1393299292_w1" function="walkingarea">
        <lane id=":1393299292_w1_0" index="0" allow="pedestrian" speed="1.00" length="5.70" width="4.00" shape="822.57,2103.51 821.56,2099.64 819.62,2100.15 827.78,2099.78 829.65,2102.12"/>
    </edge>
    <edge id=":1393747915_0" function="internal">
        <lane id=":1393747915_0_0" index="0" disallow="pedestrian tram rail_urban rail rail_electric rail_fast ship" speed="3.65" length="4.67" shape="689.54,1991.80 690.72,1990.98 691.61,1990.91 692.21,1991.58 692.51,1992.99"/>
    </edge>
    <edge id=":1393747915_w0" function="walkingarea">
        <lane id=":1393747915_w0_0" index="0" allow="pedestrian" speed="1.00" length="8.40" width="2.00" shape="693.99,1993.58 695.85,1994.32 686.19,1990.47 688.05,1991.21"/>
    </edge>
    <edge id=":1393747923_0" function="internal">
        <lane id=":1393747923_0_0" index="0" disallow="pedestrian tram rail_urban rail rail_electric rail_fast ship" speed="7.00" length="8.37" shape="646.38,2039.38 644.54,2040.89 643.41,2042.58 643.00,2044.43 643.30,2046.47"/>
    </edge>
    <edge id=":1393747923_1" function="internal">
        <lane id=":1393747923_1_0" index="0" disallow="pedestrian tram rail_urban rail rail_electric rail_fast ship" speed="3.65" length="4.67" shape="646.38,2039.38 644.94,2039.36 644.16,2038.91 644.06,2038.02 644.63,2036.69"/>
    </edge>
    <edge id=":1393747923_2" function="internal">
        <lane id=":1393747923_2_0" index="0" disallow="pedestrian tram rail_urban rail rail_electric rail_fast ship" speed="7.17" length="3.37" shape="637.15,2035.59 639.25,2036.84 640.14,2037.11"/>
    </edge>
    <edge id=":1393747923_3" function="internal">
        <lane id=":1393747923_3_0" index="0" disallow="pedestrian tram rail_urban rail rail_electric rail_fast ship" speed="13.75" length="12.30" shape="637.15,2035.59 639.99,2038.00 641.43,2040.17 642.27,2042.76 643.30,2046.47"/>
        <lane id=":1393747923_3_1" index="1" disallow="pedestrian tram rail_urban rail rail_electric rail_fast ship" speed="13.11" length="12.30" shape="634.50,2037.63 637.10,2039.80 638.47,2041.73 639.28,2044.06 640.24,2047.41"/>
    </edge>
    <edge id=":1393747923_5" function="internal">
        <lane id=":1393747923_5_0" index="0" disallow="pedestrian tram rail_urban rail rail_electric rail_fast ship" speed="7.17" length="4.69" shape="640.14,2037.11 641.19,2037.44 642.99,2037.39 644.63,2036.69"/>
    </edge>
    <edge id=":1393747923_c0" function="crossing" crossingEdges="205981089#1">
        <lane id=":1393747923_c0_0" index="0" allow="pedestrian" speed="1.00" length="6.40" width="4.00" shape="644.24,2044.09 638.12,2045.96"/>
    </edge>
    <edge id=":1393747923_c1" function="crossing" crossingEdges="125496894 -125496894">
        <lane id=":1393747923_c1_0" index="0" allow="pedestrian" speed="1.00" length="6.40" width="4.00" shape="642.08,2036.44 645.57,2041.81"/>
    </edge>
    <edge id=":1393747923_c2" function="crossing" crossingEdges="205981089#0">
        <lane id=":1393747923_c2_0" index="0" allow="pedestrian" speed="1.00" length="6.47" width="4.00" shape="635.19,2040.10 639.71,2035.47"/>
    </edge>
    <edge id=":1393747923_w0" function="walkingarea">
        <lane id=":1393747923_w0_0" index="0" allow="pedestrian" speed="1.00" length="6.57" width="4.00" shape="633.76,2038.70 632.94,2038.47 631.77,2040.09 636.79,2048.46 638.71,2047.88 638.09,2045.71 637.63,2044.03 637.14,2042.68 636.42,2041.49 635.29,2040.29"/>
    </edge>
    <edge id=":1393747923_w1" function="walkingarea">
        <lane id=":1393747923_w1_0" index="0" allow="pedestrian" speed="1.00" length="3.33" width="4.00" shape="644.82,2046.00 646.74,2045.41 648.34,2042.40 647.25,2040.72 646.25,2041.47 645.48,2042.28 644.96,2043.14 644.67,2044.04 644.63,2044.99"/>
    </edge>
    <edge id=":1393747923_w2" function="walkingarea">
        <lane id=":1393747923_w2_0" index="0" allow="pedestrian" speed="1.00" length="2.95" width="4.00" shape="643.76,2035.35 642.67,2033.68 639.89,2033.13 638.72,2034.75 638.28,2034.07 639.21,2035.02 640.25,2035.53 641.23,2035.81 642.14,2035.88 642.99,2035.72"/>
    </edge>
    <edge id=":1393747939_0" function="internal">
        <lane id=":1393747939_0_0" index="0" allow="pedestrian delivery bicycle" speed="3.65" length="4.67" shape="616.39,2226.91 615.34,2227.90 614.47,2228.11 613.78,2227.54 613.27,2226.19"/>
    </edge>
    <edge id=":1393747948_0" function="internal">
        <lane id=":1393747948_0_0" index="0" allow="delivery bicycle" speed="6.95" length="8.93" shape="604.62,2209.81 601.81,2209.00 599.43,2208.70 597.49,2208.89 595.98,2209.58"/>
    </edge>
    <edge id=":1393747948_1" function="internal">
        <lane id=":1393747948_1_0" index="0" allow="pedestrian delivery bicycle" speed="3.65" length="4.67" shape="604.62,2209.81 603.75,2208.66 603.64,2207.77 604.28,2207.15 605.67,2206.79"/>
    </edge>
    <edge id=":1393747948_2" function="internal">
        <lane id=":1393747948_2_0" index="0" allow="delivery bicycle" speed="5.76" length="7.13" shape="602.59,2201.42 602.20,2203.17 602.59,2204.64 603.75,2205.85 605.67,2206.79"/>
    </edge>
    <edge id=":1393747948_3" function="internal">
        <lane id=":1393747948_3_0" index="0" disallow="pedestrian tram rail_urban rail rail_electric rail_fast ship" speed="8.33" length="10.21" shape="602.59,2201.42 601.31,2204.31 600.13,2206.16 598.52,2207.68 595.98,2209.58"/>
        <lane id=":1393747948_3_1" index="1" disallow="pedestrian tram rail_urban rail rail_electric rail_fast ship" speed="8.33" length="10.21" shape="599.90,2199.54 598.77,2202.16 597.75,2203.86 596.35,2205.27 594.09,2207.01"/>
    </edge>
    <edge id=":1393747948_c0" function="crossing" crossingEdges="237119283#0">
        <lane id=":1393747948_c0_0" index="0" allow="pedestrian" speed="1.00" length="6.44" width="4.00" shape="597.66,2200.79 603.31,2203.87"/>
    </edge>
    <edge id=":1393747948_w0" function="walkingarea">
        <lane id=":1393747948_w0_0" index="0" allow="pedestrian" speed="1.00" length="6.35" width="4.00" shape="596.93,2210.87 598.11,2212.48 604.10,2211.32 605.15,2208.30 605.15,2208.30 606.20,2205.28 605.70,2203.33 603.84,2202.57 604.27,2202.12 603.11,2204.27 602.28,2205.91 601.41,2207.16 600.34,2208.25 598.90,2209.41"/>
    </edge>
    <edge id=":1393747948_w1" function="walkingarea">
        <lane id=":1393747948_w1_0" index="0" allow="pedestrian" speed="1.00" length="5.99" width="4.00" shape="598.62,2199.03 598.64,2198.38 596.79,2197.63 591.96,2204.10 593.14,2205.72 594.62,2204.61 595.69,2203.71 596.47,2202.86 597.10,2201.90 597.70,2200.64"/>
    </edge>
    <edge id=":1393747951_0" function="internal">
        <lane id=":1393747951_0_0" index="0" disallow="pedestrian tram rail_urban rail rail_electric rail_fast ship" speed="6.71" length="9.35" shape="864.65,2013.80 867.48,2014.32 869.73,2014.02 871.40,2012.92 872.49,2011.00"/>
    </edge>
    <edge id=":1393747951_1" function="internal">
        <lane id=":1393747951_1_0" index="0" disallow="pedestrian tram rail_urban rail rail_electric rail_fast ship" speed="3.65" length="4.67" shape="864.65,2013.80 865.60,2014.89 865.77,2015.76 865.17,2016.43 863.80,2016.89"/>
    </edge>
    <edge id=":1393747951_2" function="internal">
        <lane id=":1393747951_2_0" index="0" disallow="pedestrian tram rail_urban rail rail_electric rail_fast ship" speed="6.50" length="5.10" shape="868.17,2023.68 868.53,2021.38 867.93,2019.48 867.36,2018.94"/>
    </edge>
    <edge id=":1393747951_3" function="internal">
        <lane id=":1393747951_3_0" index="0" disallow="pedestrian tram rail_urban rail rail_electric rail_fast ship" speed="16.67" length="13.38" shape="868.17,2023.68 872.49,2011.00"/>
        <lane id=":1393747951_3_1" index="1" disallow="pedestrian tram rail_urban rail rail_electric rail_fast ship" speed="16.67" length="13.38" shape="871.20,2024.70 875.51,2012.04"/>
        <lane id=":1393747951_3_2" index="2" disallow="pedestrian tram rail_urban rail rail_electric rail_fast ship" speed="16.67" length="13.38" shape="874.23,2025.73 878.54,2013.08"/>
    </edge>
    <edge id=":1393747951_6" function="internal">
        <lane id=":1393747951_6_0" index="0" disallow="pedestrian tram rail_urban rail rail_electric rail_fast ship" speed="6.50" length="4.17" shape="867.36,2018.94 866.35,2017.98 863.80,2016.89"/>
    </edge>
    <edge id=":1393747951_c0" function="crossing" crossingEdges="23770807 -23770807">
        <lane id=":1393747951_c0_0" index="0" allow="pedestrian" speed="1.00" length="6.40" width="4.00" shape="865.27,2018.99 867.02,2012.83"/>
    </edge>
    <edge id=":1393747951_w0" function="walkingarea">
        <lane id=":1393747951_w0_0" index="0" allow="pedestrian" speed="1.00" length="3.50" width="4.00" shape="870.97,2010.48 868.13,2009.51 865.62,2010.33 865.05,2012.25 866.59,2012.61 867.88,2012.69 868.96,2012.52 869.83,2012.10 870.51,2011.42"/>
    </edge>
    <edge id=":1393747951_w1" function="walkingarea">
        <lane id=":1393747951_w1_0" index="0" allow="pedestrian" speed="1.00" length="3.27" width="4.00" shape="863.40,2018.44 862.84,2020.35 863.81,2022.21 866.66,2023.17 866.89,2022.08 866.80,2021.12 866.41,2020.27 865.70,2019.53 864.68,2018.92"/>
    </edge>
    <edge id=":1821428832_w0" function="walkingarea">
        <lane id=":1821428832_w0_0" index="0" allow="pedestrian" speed="1.00" length="4.01" width="2.00" shape="919.66,2050.07 921.52,2049.32 921.70,2045.73 919.80,2045.10 918.02,2045.80 917.06,2047.56 919.35,2049.36 919.04,2048.86 918.71,2048.51 918.29,2048.22 917.76,2047.93"/>
    </edge>
    <edge id=":2199687074_0" function="internal">
        <lane id=":2199687074_0_0" index="0" disallow="tram rail_urban rail rail_electric rail_fast ship" speed="3.65" length="4.67" shape="962.76,2028.49 961.69,2027.53 961.41,2026.68 961.91,2025.95 963.22,2025.32"/>
    </edge>
    <edge id=":2333696428_0" function="internal">
        <lane id=":2333696428_0_0" index="0" disallow="pedestrian tram rail_urban rail rail_electric rail_fast ship" speed="8.33" length="11.62" shape="1073.78,1973.75 1074.02,1969.23 1073.33,1966.16 1072.04,1963.13 1071.82,1962.51"/>
        <lane id=":2333696428_0_1" index="1" disallow="pedestrian tram rail_urban rail rail_electric rail_fast ship" speed="8.33" length="12.13" shape="1073.78,1973.75 1074.53,1969.02 1074.91,1965.71 1074.67,1962.44 1074.49,1961.73"/>
    </edge>