<?xml version="1.0" encoding="UTF-8"?>

<!-- generated on 2021-11-16 10:39:09 by Eclipse SUMO polyconvert Version 1.10.0
<configuration xmlns:xsi="http://www.w3.org/2001/XMLSchema-instance" xsi:noNamespaceSchemaLocation="http://sumo.dlr.de/xsd/polyconvertConfiguration.xsd">

    <input>
        <net-file value="osm.net.xml"/>
        <osm-files value="osm_bbox.osm.xml"/>
        <osm.keep-full-type value="true"/>
        <type-file value="C:\Program%20Files%20(x86)\Eclipse\Sumo\data\typemap\osmPolyconvert.typ.xml"/>
    </input>

    <output>
        <output-file value="osm.poly.xml"/>
    </output>

    <processing>
        <poi-layer-offset value="5"/>
    </processing>

    <report>
        <verbose value="true"/>
    </report>

</configuration>
-->

<additional xmlns:xsi="http://www.w3.org/2001/XMLSchema-instance" xsi:noNamespaceSchemaLocation="http://sumo.dlr.de/xsd/additional_file.xsd">
    <location netOffset="-427288.81,-4919772.90" convBoundary="-0.00,0.00,2579.98,5910.94" origBoundary="26.086093,44.427738,26.118652,44.481060" projParameter="+proj=utm +zone=35 +ellps=WGS84 +datum=WGS84 +units=m +no_defs"/>

    <poly id="125500103" type="amenity.public_building" color="237,199,199" fill="1" layer="-1.00" shape="620.970443,2248.093256 600.079511,2242.203553 602.989931,2231.950992 623.881015,2237.851812 620.970443,2248.093256"/>
    <poly id="125500103#1" type="building.yes" color="255,230,230" fill="1" layer="-1.00" shape="620.970443,2248.093256 600.079511,2242.203553 602.989931,2231.950992 623.881015,2237.851812 620.970443,2248.093256"/>
    <poly id="161116560" type="amenity.hospital" color="237,199,199" fill="1" layer="-1.00" shape="1113.894585,2350.810726 1126.109158,2350.765265 1126.084918,2345.666487 1127.875308,2345.657908 1127.898918,2351.423234 1150.258942,2351.321806 1150.203478,2338.313745 1127.676317,2338.417010 1127.685444,2340.694261 1125.926880,2340.702490 1125.845296,2322.429037 1127.619778,2322.420632 1127.635239,2325.997569 1150.011264,2325.895966 1149.955536,2313.587778 1127.754519,2313.687455 1127.767658,2317.053346 1125.945433,2317.062275 1125.882610,2302.665667 1113.691940,2302.721973 1113.894585,2350.810726"/>
    <poly id="161116560#1" type="building.clinic" color="255,230,230" fill="1" layer="-1.00" shape="1113.894585,2350.810726 1126.109158,2350.765265 1126.084918,2345.666487 1127.875308,2345.657908 1127.898918,2351.423234 1150.258942,2351.321806 1150.203478,2338.313745 1127.676317,2338.417010 1127.685444,2340.694261 1125.926880,2340.702490 1125.845296,2322.429037 1127.619778,2322.420632 1127.635239,2325.997569 1150.011264,2325.895966 1149.955536,2313.587778 1127.754519,2313.687455 1127.767658,2317.053346 1125.945433,2317.062275 1125.882610,2302.665667 1113.691940,2302.721973 1113.894585,2350.810726"/>
    <poly id="162570003" type="building.apartments" color="255,230,230" fill="1" layer="-1.00" shape="818.120012,1976.596644 831.638820,1977.125023 833.396212,1968.351702 860.349158,1978.318929 861.058631,1974.100777 854.702985,1971.482537 856.581094,1961.385916 858.211086,1952.602901 838.200712,1945.080784 837.847869,1943.396106 821.104299,1940.559315 818.120012,1976.596644"/>
    <poly id="162570014" type="building.apartments" color="255,230,230" fill="1" layer="-1.00" shape="844.059415,2032.444192 834.666414,2030.781552 834.816453,2028.513653 833.204451,2028.109307 833.696049,2026.504179 832.505774,2026.095177 835.289243,2016.555113 847.810185,2019.694054 858.632688,2022.529602 861.201430,2025.978379 858.349881,2036.563431 849.558567,2034.616404 849.865522,2030.702636 845.293945,2029.653305 844.059415,2032.444192"/>
    <poly id="162570022" type="building.yes" color="255,230,230" fill="1" layer="-1.00" shape="834.898770,2074.892960 842.838165,2078.249109 847.628094,2065.198663 857.254787,2039.730483 858.349881,2036.563431 849.558567,2034.616404 843.108128,2033.498942 841.056836,2036.554353 839.839395,2036.567793 838.504288,2041.781560 840.265046,2043.406259 837.493819,2052.612914 835.263735,2039.473330 836.283186,2037.384686 832.769621,2034.135204 829.880158,2031.911973 819.542508,2032.626009 826.239258,2074.788609 834.898770,2074.892960"/>
    <poly id="162570028" type="building.apartments" color="255,230,230" fill="1" layer="-1.00" shape="871.398970,1929.628307 879.177142,1930.620059 891.251011,1932.175428 892.369516,1928.241602 895.971221,1928.657342 896.977967,1925.413509 892.551754,1923.840416 894.233253,1918.278462 897.254205,1918.711718 899.549311,1916.831194 900.881097,1914.916861 902.056188,1913.226436 901.791000,1910.107724 899.398180,1909.623102 896.335477,1909.012561 888.382575,1906.611868 876.788519,1903.107130 875.010949,1910.058777 880.722963,1912.761903 875.767704,1925.991885 871.935236,1925.578703 871.398970,1929.628307"/>
    <poly id="162570034" type="building.apartments" color="255,230,230" fill="1" layer="-1.00" shape="876.835539,1981.658563 891.781303,1941.290091 894.478369,1934.006143 891.251011,1932.175428 879.177142,1930.620059 877.545232,1935.626019 871.442124,1934.260297 866.396327,1931.349866 871.026095,1912.424534 867.805716,1911.949055 868.114539,1908.923991 869.799645,1908.738761 870.131293,1900.569964 858.974410,1899.182258 853.100884,1925.830993 859.624279,1927.780839 856.079614,1942.628298 862.760777,1943.732119 862.611706,1946.088879 867.601272,1946.789230 867.911809,1943.919673 870.549229,1945.656905 873.147192,1944.539553 875.179107,1944.772641 873.054365,1951.272650 860.605400,1947.455213 858.211086,1952.602901 856.581094,1961.385916 868.998461,1965.947999 867.932971,1968.914759 863.360496,1967.787661 860.910743,1973.680265 863.420716,1975.407792 876.835539,1981.658563"/>
    <poly id="162570132" type="building.yes" color="255,230,230" fill="1" layer="-1.00" shape="948.577514,2159.178402 953.280455,2159.159888 953.195470,2144.230288 948.476972,2144.282300 948.548493,2155.823795 948.577514,2159.178402"/>
    <poly id="162570216" type="building.commercial" color="255,230,230" fill="1" layer="-1.00" shape="925.632448,2165.463581 939.892071,2165.373010 939.835232,2155.886524 948.548493,2155.823795 948.476972,2144.282300 929.331463,2144.404505 927.531717,2145.013128 926.150756,2146.072605 925.520325,2147.357095 925.632448,2165.463581"/>
    <poly id="162570217" type="building.yes" color="255,230,230" fill="1" layer="-1.00" shape="818.120012,1976.596644 815.762740,1999.507284 838.455617,2005.655522 839.225215,2003.280802 843.518663,1989.947002 830.324706,1985.682378 831.638820,1977.125023 818.120012,1976.596644"/>
    <poly id="162570236" type="building.apartments" color="255,230,230" fill="1" layer="-1.00" shape="839.225215,2003.280802 848.892010,2006.673436 852.223389,2007.836439 853.553362,2009.365915 865.301740,2013.168850 871.282851,1996.994751 872.850356,1992.644932 876.835539,1981.658563 863.420716,1975.407792 856.474401,1995.702892 843.518663,1989.947002 839.225215,2003.280802"/>
    <poly id="171045063" type="building.office" color="255,230,230" fill="1" layer="-1.00" shape="990.916508,2327.724618 990.760708,2317.194972 1039.693087,2316.489406 1039.868008,2328.762959 1032.373099,2328.878810 1032.345818,2327.123883 990.916508,2327.724618"/>
    <poly id="171045065" type="building.yes" color="255,230,230" fill="1" layer="-1.00" shape="926.458031,2245.383970 931.096275,2245.277280 942.145538,2241.289511 949.612018,2238.585468 949.683254,2235.663007 950.773224,2235.639883 950.726820,2232.152158 943.581535,2232.230927 943.497182,2229.632344 939.931271,2229.560567 940.225280,2223.025214 936.697071,2223.486256 926.303044,2224.833967 926.458031,2245.383970"/>
    <poly id="171045067" type="building.apartments" color="255,230,230" fill="1" layer="-1.00" shape="907.426730,2173.585102 915.027953,2173.712338 916.227807,2150.459009 911.489565,2145.834363 893.485218,2146.244032 893.506180,2148.865532 901.113920,2148.859372 901.366503,2153.000255 903.462750,2154.021382 903.194698,2157.856955 906.632242,2158.552234 907.426730,2173.585102"/>
    <poly id="171045068" type="building.yes" color="255,230,230" fill="1" layer="-1.00" shape="609.112336,2379.489084 602.269357,2373.799287 605.599041,2369.074385 604.512333,2367.953300 602.701152,2366.084824 607.447713,2360.677686 609.027616,2361.782200 611.564300,2358.743551 609.084630,2356.871369 614.007244,2347.240848 626.873639,2357.907462 609.112336,2379.489084"/>
    <poly id="171045069" type="building.apartments" color="255,230,230" fill="1" layer="-1.00" shape="1068.044298,2181.069318 1068.133317,2163.849347 1079.793062,2165.420722 1086.128994,2166.273057 1086.592740,2170.811547 1082.313362,2170.991940 1080.679202,2173.631651 1082.766600,2174.575168 1082.258012,2178.979939 1080.056992,2179.281883 1078.971632,2181.171251 1068.044298,2181.069318"/>
    <poly id="171045070" type="building.yes" color="255,230,230" fill="1" layer="-1.00" shape="787.827313,2036.753385 807.730704,2033.167490 804.087426,2017.455119 802.455210,2011.618687 800.121835,2012.910890 795.379461,2016.573711 786.239509,2021.251604 782.091888,2026.163186 788.643929,2026.390742 789.969714,2031.141872 786.744517,2031.666300 787.827313,2036.753385"/>
    <poly id="171045076" type="building.yes" color="255,230,230" fill="1" layer="-1.00" shape="955.422295,2258.173299 957.829089,2273.654980 931.347770,2276.024312 931.243693,2271.637391 926.533857,2271.744871 926.458031,2245.383970 931.096275,2245.277280 942.145538,2241.289511 942.474275,2255.227724 940.350039,2255.273361 940.530755,2263.003256 942.368542,2262.960776 942.359235,2262.116593 947.714551,2258.480445 955.422295,2258.173299"/>
    <poly id="171045081" type="building.yes" color="255,230,230" fill="1" layer="-1.00" shape="602.701152,2366.084824 607.447713,2360.677686 604.854310,2358.595693 606.165081,2356.237165 609.084630,2356.871369 614.007244,2347.240848 607.329648,2339.960619 602.391330,2338.115673 592.429765,2347.590956 595.615300,2352.121483 591.506220,2354.733196 591.982563,2357.505181 599.873764,2362.994502 602.701152,2366.084824"/>
    <poly id="171045082" type="building.office" color="255,230,230" fill="1" layer="-1.00" shape="702.061360,2025.825906 699.431856,2035.597618 702.430126,2036.142124 716.862749,2038.715327 716.708383,2042.027527 725.420625,2043.297599 727.357254,2032.755926 726.565437,2028.798755 723.877468,2027.528720 720.191700,2030.302299 717.074249,2031.214387 713.732415,2029.107300 712.536455,2027.465279 705.687266,2026.274599 702.061360,2025.825906"/>
    <poly id="171045083" type="building.yes" color="255,230,230" fill="1" layer="-1.00" shape="731.292177,2030.923864 740.247935,2014.627876 728.221518,2008.717523 731.234157,2003.362985 729.896119,1999.667360 723.154444,1996.686918 717.932729,2007.376008 714.035355,2005.408372 711.512540,2011.157426 708.090754,2009.017899 705.801255,2014.275578 708.576790,2016.266725 707.233126,2019.258808 731.292177,2030.923864"/>
    <poly id="171045085" type="building.yes" color="255,230,230" fill="1" layer="-1.00" shape="729.370074,2286.041994 751.393189,2284.954222 751.343951,2280.500040 745.917393,2280.560029 745.928934,2278.004822 742.545806,2277.908915 742.234088,2276.345986 739.040204,2276.092462 738.835214,2274.106210 730.882797,2274.594063 730.950435,2276.392980 726.830881,2276.627386 727.356629,2286.030931 729.370074,2286.041994"/>
    <poly id="171045086" type="building.yes" color="255,230,230" fill="1" layer="-1.00" shape="926.303044,2224.833967 926.219114,2212.892682 927.897410,2212.818630 927.884794,2211.674539 928.172953,2211.104800 928.874872,2210.530500 929.652690,2210.344179 930.490248,2210.523797 931.043684,2210.917620 931.464670,2211.568411 931.502013,2212.789993 937.680491,2212.355272 937.806710,2214.420160 941.791284,2214.209595 942.915658,2214.419380 943.624315,2215.178091 943.790923,2215.853905 943.554668,2216.800777 942.822023,2217.475396 941.908816,2217.652099 941.971500,2219.728797 936.575131,2220.365963 936.697071,2223.486256 926.303044,2224.833967"/>
    <poly id="171045087" type="building.yes" color="255,230,230" fill="1" layer="-1.00" shape="901.287388,2173.963874 907.426730,2173.585102 906.632242,2158.552234 903.194698,2157.856955 903.462750,2154.021382 901.366503,2153.000255 901.113920,2148.859372 893.506180,2148.865532 890.283354,2148.878869 887.106484,2153.057587 885.492376,2167.606012 891.529385,2167.328336 891.876216,2169.912914 896.345824,2169.663644 896.227435,2168.309648 901.123297,2168.466712 901.287388,2173.963874"/>
    <poly id="171045089" type="building.house" color="255,230,230" fill="1" layer="-1.00" shape="1084.390279,2328.650627 1084.405556,2330.039088 1100.748753,2329.859281 1100.678493,2323.472363 1090.278990,2323.586772 1090.217641,2318.010715 1086.859879,2318.047659 1086.834336,2315.726153 1064.706400,2315.958550 1064.848458,2328.865679 1084.390279,2328.650627"/>
    <poly id="171045091" type="building.yes" color="255,230,230" fill="1" layer="-1.00" shape="1092.963123,2181.306145 1092.486376,2171.968699 1097.484920,2172.780214 1099.951288,2174.897125 1101.418667,2175.180927 1102.956726,2173.208820 1100.109142,2171.884842 1100.358463,2167.782869 1094.182666,2166.295543 1091.235194,2164.572743 1092.755167,2160.956697 1097.763495,2162.656827 1100.311600,2154.841370 1113.646194,2158.194044 1113.306634,2162.774697 1118.209315,2164.276042 1114.489459,2182.046956 1113.256434,2184.982190 1101.931794,2182.762747 1095.000590,2181.328166 1092.963123,2181.306145"/>
    <poly id="171045092" type="building.apartments" color="255,230,230" fill="1" layer="-1.00" shape="1092.248803,2305.890636 1095.773419,2305.829641 1095.555304,2291.790229 1091.473704,2291.857352 1091.452915,2290.691132 1082.859923,2290.819005 1082.910792,2293.995627 1081.136546,2294.026259 1081.180693,2296.591959 1076.677385,2296.663731 1076.371665,2277.559566 1074.406450,2277.592301 1074.355699,2274.426786 1080.323080,2274.338903 1080.317213,2273.805734 1085.298069,2273.739819 1086.483850,2268.683274 1087.745793,2262.592751 1086.358490,2262.352507 1085.422895,2261.940658 1084.509337,2261.361931 1081.231359,2261.420218 1081.223048,2260.664895 1068.182504,2260.875053 1067.055076,2261.109642 1065.861171,2261.811541 1064.804611,2262.700783 1064.069748,2263.897537 1063.740196,2265.045394 1063.668043,2268.612186 1062.824618,2268.621469 1062.928209,2275.141329 1063.811295,2275.120501 1064.045625,2289.904039 1063.329634,2289.923029 1063.458908,2298.053415 1064.541034,2298.041505 1064.650125,2305.061211 1063.480598,2305.085192 1063.506648,2306.729042 1068.495314,2306.651919 1068.473788,2305.419054 1072.531631,2305.363287 1072.545444,2306.618455 1075.735875,2306.561128 1075.713739,2305.272724 1082.938143,2305.159900 1082.980701,2307.581200 1084.946029,2307.559575 1084.967918,2308.825764 1091.062454,2308.725381 1091.040321,2307.436977 1092.273502,2307.412301 1092.248803,2305.890636"/>
    <poly id="171045094" type="building.yes" color="255,230,230" fill="1" layer="-1.00" shape="768.196323,2305.497968 765.624507,2296.005943 777.775599,2293.805379 781.181000,2302.399474 768.196323,2305.497968"/>
    <poly id="171045096" type="building.yes" color="255,230,230" fill="1" layer="-1.00" shape="940.614969,2365.194335 926.841634,2365.323988 926.441117,2332.612295 940.316980,2332.392640 940.614969,2365.194335"/>
    <poly id="171045104" type="building.yes" color="255,230,230" fill="1" layer="-1.00" shape="815.431795,2309.653014 795.830813,2311.002647 794.804133,2301.626851 814.109514,2300.169389 815.431795,2309.653014"/>
    <poly id="171045105" type="building.yes" color="255,230,230" fill="1" layer="-1.00" shape="783.175791,2313.686435 792.863318,2311.790846 790.446832,2300.508541 781.181000,2302.399474 783.175791,2313.686435"/>
    <poly id="171045106" type="building.yes" color="255,230,230" fill="1" layer="-1.00" shape="998.206456,2279.386670 1011.760003,2278.070926 1012.337140,2284.230082 1010.302028,2284.419133 1010.454300,2285.961611 1009.214137,2286.075252 1009.366654,2287.639945 1001.599939,2288.369821 1001.455255,2286.793932 1000.342279,2286.895065 1000.225503,2285.685467 998.826326,2285.811970 998.206456,2279.386670"/>
    <poly id="171045107" type="building.yes" color="255,230,230" fill="1" layer="-1.00" shape="793.798111,1980.042457 799.533406,1969.725466 766.860776,1954.933716 764.053549,1965.918247 793.798111,1980.042457"/>
    <poly id="171045114" type="building.yes" color="255,230,230" fill="1" layer="-1.00" shape="828.527737,2322.394875 848.320755,2321.143201 848.027947,2308.315494 827.874259,2309.337861 828.527737,2322.394875"/>
    <poly id="171045118" type="building.yes" color="255,230,230" fill="1" layer="-1.00" shape="989.791887,2292.821320 999.410575,2291.893284 998.826326,2285.811970 998.206456,2279.386670 988.579793,2280.314795 989.791887,2292.821320"/>
    <poly id="171045126" type="building.yes" color="255,230,230" fill="1" layer="-1.00" shape="977.568023,2289.145611 982.600038,2288.668019 983.058953,2293.484283 989.791887,2292.821320 988.579793,2280.314795 976.838085,2281.399549 977.568023,2289.145611"/>
    <poly id="171045127" type="building.apartments" color="255,230,230" fill="1" layer="-1.00" shape="769.478086,1921.000022 754.299876,1916.513075 773.214859,1852.971448 781.095397,1855.295038 778.164178,1865.147808 785.461850,1867.300098 769.478086,1921.000022"/>
    <poly id="171045134" type="building.yes" color="255,230,230" fill="1" layer="-1.00" shape="1101.868845,2190.062070 1068.273948,2188.920873 1068.044298,2181.069318 1078.971632,2181.171251 1092.963123,2181.306145 1095.000590,2181.328166 1101.931794,2182.762747 1101.868845,2190.062070"/>
    <poly id="171045138" type="building.office" color="255,230,230" fill="1" layer="-1.00" shape="1065.904300,2343.095835 1084.546965,2342.890679 1084.405556,2330.039088 1076.186218,2330.129532 1076.211887,2332.462146 1065.788527,2332.576857 1065.904300,2343.095835"/>
    <poly id="171045140" type="building.yes" color="255,230,230" fill="1" layer="-1.00" shape="940.316980,2332.392640 945.878514,2332.309106 945.627504,2316.037138 936.302643,2316.184383 936.275825,2314.473887 926.498282,2314.703900 926.441117,2332.612295 940.316980,2332.392640"/>
    <poly id="171045141" type="building.yes" color="255,230,230" fill="1" layer="-1.00" shape="968.799000,2294.241311 967.672188,2282.255974 976.838085,2281.399549 977.568023,2289.145611 978.054730,2294.317056 975.184892,2294.581971 975.095042,2293.649802 968.799000,2294.241311"/>
    <poly id="171045143" type="building.yes" color="255,230,230" fill="1" layer="-1.00" shape="1011.760003,2278.070926 1038.608573,2275.808969 1038.677457,2290.738747 1013.063356,2293.087090 1012.603743,2286.037918 1031.079249,2284.368061 1030.939593,2282.525500 1012.337140,2284.230082 1011.760003,2278.070926"/>
    <poly id="171045145" type="building.yes" color="255,230,230" fill="1" layer="-1.00" shape="765.817231,2234.959638 757.243308,2225.300664 772.277101,2213.903273 775.181951,2216.803959 787.106166,2216.383369 787.230426,2221.147773 778.110363,2221.837321 780.280124,2225.190494 765.817231,2234.959638"/>
    <poly id="171045146" type="building.apartments" color="255,230,230" fill="1" layer="-1.00" shape="800.406778,2210.170896 792.558410,2199.915083 811.230259,2184.300597 821.999253,2192.402353 818.550304,2206.526700 816.267923,2213.150674 811.030540,2212.330903 809.783969,2206.101393 800.406778,2210.170896"/>
    <poly id="171045148" type="building.yes" color="255,230,230" fill="1" layer="-1.00" shape="1068.133317,2163.849347 1062.579017,2161.710888 1067.382709,2145.538823 1100.311600,2154.841370 1097.763495,2162.656827 1092.755167,2160.956697 1091.235194,2164.572743 1081.441550,2162.636435 1079.793062,2165.420722 1068.133317,2163.849347"/>
    <poly id="171045149" type="building.house" color="255,230,230" fill="1" layer="-1.00" shape="1120.961378,2282.101432 1124.359545,2266.922458 1109.473959,2263.620153 1108.449755,2268.175011 1107.109585,2267.878699 1106.176711,2272.054845 1110.269075,2272.965209 1109.738364,2275.359487 1114.708176,2276.460164 1113.797825,2280.513862 1120.961378,2282.101432"/>
    <poly id="171045150" type="building.house" color="255,230,230" fill="1" layer="-1.00" shape="1086.483850,2268.683274 1088.908474,2269.178721 1087.805192,2274.500975 1103.764938,2277.791415 1105.117856,2271.288861 1106.848215,2262.926948 1089.692097,2259.394155 1088.974081,2262.845853 1087.745793,2262.592751 1086.483850,2268.683274"/>
    <poly id="171045152" type="building.yes" color="255,230,230" fill="1" layer="-1.00" shape="637.249628,2127.824236 649.333600,2126.723977 649.004902,2146.635019 643.960167,2146.690864 643.645766,2143.450504 642.589222,2141.462572 636.086876,2141.401251 635.765302,2136.794558 638.935475,2136.337317 637.249628,2127.824236"/>
    <poly id="171045156" type="building.yes" color="255,230,230" fill="1" layer="-1.00" shape="742.569773,2322.544779 740.576044,2312.079886 768.196323,2305.497968 781.181000,2302.399474 783.175791,2313.686435 769.369009,2316.560722 767.915295,2318.232035 758.663221,2320.644974 757.244534,2319.005408 742.569773,2322.544779"/>
    <poly id="171045158" type="building.university" color="255,230,230" fill="1" layer="-1.00" shape="867.531245,2212.306999 853.740499,2201.516809 861.743783,2199.140011 871.745637,2206.961480 867.531245,2212.306999"/>
    <poly id="171045161" type="building.university" color="255,230,230" fill="1" layer="-1.00" shape="847.512355,2230.613471 855.312302,2230.005246 842.485707,2219.326637 842.346301,2226.882321 845.831053,2226.810523 847.348763,2228.049090 847.512355,2230.613471"/>
    <poly id="171045162" type="building.university" color="255,230,230" fill="1" layer="-1.00" shape="873.458658,2220.851089 872.974796,2215.224147 875.176734,2212.122646 888.674582,2210.796155 889.664399,2219.005920 873.458658,2220.851089"/>
    <poly id="171045163" type="building.university" color="255,230,230" fill="1" layer="-1.00" shape="863.226175,2226.740713 869.458744,2218.229061 869.901386,2225.889411 863.226175,2226.740713"/>
    <poly id="180559150" type="building.yes" color="255,230,230" fill="1" layer="-1.00" shape="1075.041702,1928.884111 1078.705406,1925.533311 1081.593131,1926.879057 1083.647235,1919.002379 1091.694569,1920.591311 1091.553097,1924.369934 1102.210282,1925.919060 1101.770997,1927.945734 1108.247332,1928.518826 1108.464693,1930.915984 1106.595683,1932.469585 1103.889176,1935.298826 1101.013555,1935.052729 1100.943252,1936.619875 1078.310737,1931.614288 1078.101322,1929.217044 1075.041702,1928.884111"/>
    <poly id="182933473" type="building.university" color="255,230,230" fill="1" layer="-1.00" shape="879.793134,2251.142183 880.826791,2251.064123 880.982913,2254.395111 888.887621,2253.907969 888.592577,2251.689417 889.642026,2251.600075 889.522287,2250.123894 915.340340,2247.495093 915.555191,2234.506262 881.545063,2238.269698 878.636031,2238.590632 879.793134,2251.142183"/>
    <poly id="182933477" type="building.yes" color="255,230,230" fill="1" layer="-1.00" shape="716.361987,2294.939770 711.862116,2273.737940 705.554893,2273.318904 695.784598,2275.648791 694.269850,2278.276174 692.841153,2289.401023 696.729027,2290.524461 705.187829,2292.652699 708.885718,2293.867118 716.361987,2294.939770"/>
    <poly id="206361373" type="building.yes" color="255,230,230" fill="1" layer="-1.00" shape="712.579401,2144.320785 712.061715,2141.404833 707.893446,2140.839937 706.010076,2125.252567 718.140930,2126.951395 717.964403,2133.296609 715.837086,2140.263285 716.957973,2141.595083 717.092069,2142.926685 714.676296,2145.397390 712.579401,2144.320785"/>
    <poly id="206361374" type="building.yes" color="255,230,230" fill="1" layer="-1.00" shape="684.062089,2228.120689 690.065796,2223.399576 695.560577,2220.150493 691.658007,2211.228669 683.437652,2211.241854 682.861439,2213.825527 681.560653,2213.495539 681.277518,2210.921374 668.385346,2210.886290 668.591867,2213.727920 672.837695,2214.114187 672.744630,2221.524948 679.930360,2222.223068 684.062089,2228.120689"/>
    <poly id="206361377" type="building.yes" color="255,230,230" fill="1" layer="-1.00" shape="669.327784,2035.008628 671.956694,2026.625539 688.934037,2031.903346 686.305231,2040.297535 669.327784,2035.008628"/>
    <poly id="206361381" type="building.yes" color="255,230,230" fill="1" layer="-1.00" shape="666.283380,2197.845318 682.890905,2190.596194 679.005508,2183.229453 663.335379,2189.612816 660.996038,2189.638707 658.995833,2195.859691 665.026878,2194.326548 666.283380,2197.845318"/>
    <poly id="206361382" type="building.yes" color="255,230,230" fill="1" layer="-1.00" shape="721.222077,2151.546063 726.484349,2151.732272 727.196126,2149.891410 727.692204,2127.823373 718.140930,2126.951395 717.964403,2133.296609 718.873631,2137.796824 720.231754,2138.992691 721.222077,2151.546063"/>
    <poly id="206361383" type="building.yes" color="255,230,230" fill="1" layer="-1.00" shape="756.735258,2044.695536 744.810536,2039.339481 751.722409,2022.443998 745.086913,2019.706758 747.723879,2014.922942 754.480087,2017.781049 772.197030,2027.338985 767.982005,2033.351115 763.323009,2032.313916 756.735258,2044.695536"/>
    <poly id="226293130" type="building.office" color="255,230,230" fill="1" layer="-1.00" shape="732.516926,2109.306804 745.491419,2112.451640 753.691718,2078.933901 740.709083,2075.778028 732.516926,2109.306804"/>
    <poly id="226293134" type="building.university" color="255,230,230" fill="1" layer="-1.00" shape="1035.799749,2257.765503 1035.045875,2226.879593 1032.521705,2226.740750 1032.265766,2211.446435 1010.470205,2210.097866 1009.792277,2209.960916 1009.311146,2216.853814 984.395388,2215.439719 983.488136,2233.490782 1005.799233,2234.689162 1005.055078,2257.437545 1001.169804,2257.991358 1001.345453,2260.933317 1001.794305,2268.449186 1020.310010,2266.812185 1020.565513,2263.276700 1023.351266,2263.323785 1023.552383,2264.243619 1033.444219,2263.545916 1033.167742,2257.950009 1035.799749,2257.765503"/>
    <poly id="226293135" type="building.university" color="255,230,230" fill="1" layer="-1.00" shape="927.768256,2191.724001 933.724086,2192.024928 1009.893237,2196.006862 1028.310337,2196.959378 1029.232548,2177.364006 1009.312262,2176.494697 988.779039,2175.609983 942.338196,2173.588944 942.306973,2171.478572 928.698246,2172.139631 927.768256,2191.724001"/>
    <poly id="228279672" type="building.yes" color="255,230,230" fill="1" layer="-1.00" shape="949.500791,2364.207648 969.943578,2364.160063 969.944423,2333.188067 949.509985,2333.279994 949.500791,2364.207648"/>
    <poly id="229193248" type="building.apartments" color="255,230,230" fill="1" layer="-1.00" shape="946.843028,2074.746672 948.713193,2077.636622 948.453188,2080.761126 931.941398,2079.421223 930.752798,2092.154168 946.210182,2092.417006 946.399308,2090.082025 951.680715,2089.834953 952.759678,2080.869182 946.843028,2074.746672"/>
    <poly id="231445017" type="building.yes" color="255,230,230" fill="1" layer="-1.00" shape="616.119040,2190.868746 653.071181,2202.690676 657.795065,2188.029997 650.104370,2185.571153 620.842851,2176.208040 616.119040,2190.868746"/>
    <poly id="23647620" type="building.university" color="255,230,230" fill="1" layer="-1.00" shape="854.765094,2235.943511 853.560517,2282.536999 829.204088,2284.194532 832.439853,2203.918227 832.631005,2201.049985 833.091864,2199.545176 833.807099,2198.015341 835.181058,2197.044794 836.484999,2196.219438 838.602633,2195.573952 840.552449,2195.585752 842.072360,2196.302169 846.766433,2194.761737 849.721985,2193.607098 853.296341,2192.278995 857.620231,2190.364950 861.395831,2188.523614 864.757549,2186.675739 868.042754,2184.384349 871.602258,2188.199903 876.277089,2192.847437 871.021652,2196.882466 876.867606,2200.928298 907.222879,2196.949647 907.498206,2198.824037 907.590646,2200.711553 911.491984,2200.168617 915.438847,2228.286487 880.703394,2232.668922 854.765094,2235.943511"/>
    <poly id="236625358" type="landuse.grass" color="194,194,130" fill="1" layer="-3.00" shape="1081.767865,1976.756646 1082.877758,1980.710356 1085.222860,1984.095025 1088.544387,1986.535795 1092.473374,1987.770109 1096.602420,1987.658034 1100.462174,1986.215840 1103.648655,1983.614607 1105.806477,1980.102640 1106.709403,1976.093462 1106.258628,1972.010299 1104.490865,1968.297111 1101.617521,1965.362606 1097.944390,1963.514476 1093.871533,1962.948281 1089.829376,1963.725944 1086.270749,1965.775827 1083.559240,1968.871748 1082.009350,1972.665868 1081.767865,1976.756646"/>
    <poly id="241942888" type="building.yes" color="255,230,230" fill="1" layer="-1.00" shape="754.566795,2152.343860 761.160998,2134.796459 772.551245,2137.892203 768.117370,2146.417397 763.321814,2152.458166 760.568396,2154.621533 754.566795,2152.343860"/>
    <poly id="241942890" type="building.yes" color="255,230,230" fill="1" layer="-1.00" shape="774.903083,2053.293118 809.049396,2059.614646 810.965595,2049.373171 776.811151,2043.040612 774.903083,2053.293118"/>
    <poly id="246126045" type="building.apartments" color="255,230,230" fill="1" layer="-1.00" shape="1040.636490,1890.403407 1048.968001,1883.824027 1050.381192,1885.685897 1055.266882,1892.130900 1056.122948,1893.265708 1063.034011,1902.965588 1071.129941,1913.307869 1076.583185,1909.859613 1078.178769,1911.663937 1076.104705,1913.386438 1078.733267,1915.046087 1076.290603,1916.539354 1074.836242,1917.444079 1078.705406,1925.533311 1075.041702,1928.884111 1072.105694,1930.382808 1066.388876,1927.957296 1064.784980,1925.397653 1066.894179,1923.252618 1062.301697,1918.137462 1060.930334,1919.352329 1042.450435,1896.137913 1043.818742,1894.645350 1041.775221,1891.912808 1040.636490,1890.403407"/>
    <poly id="255865986" type="landuse.grass" color="194,194,130" fill="1" layer="-3.00" shape="1079.091324,1996.049141 1088.266091,2001.025022 1075.012131,2015.879196 1079.091324,1996.049141"/>
    <poly id="255865988" type="landuse.grass" color="194,194,130" fill="1" layer="-3.00" shape="1076.695067,1957.638287 1084.942784,1951.404252 1071.761276,1947.538929 1076.695067,1957.638287"/>