<?xml version="1.0" encoding="UTF-8"?>

<!-- generated on 2021-11-16 10:39:10 by Eclipse SUMO duarouter Version 1.10.0
<configuration xmlns:xsi="http://www.w3.org/2001/XMLSchema-instance" xsi:noNamespaceSchemaLocation="http://sumo.dlr.de/xsd/duarouterConfiguration.xsd">

    <input>
        <net-file value="C:\Users\cipri\Sumo\2021-11-16-10-39-06\osm.net.xml"/>
        <route-files value="C:\Users\cipri\Sumo\2021-11-16-10-39-06\osm.pedestrian.trips.xml"/>
    </input>

    <output>
        <output-file value="C:\Users\cipri\Sumo\2021-11-16-10-39-06\osm.pedestrian.rou.xml"/>
        <alternatives-output value="C:\Users\cipri\Sumo\2021-11-16-10-39-06\osm.pedestrian.rou.alt.xml"/>
    </output>

    <time>
        <begin value="0"/>
        <end value="3600"/>
    </time>

    <report>
        <no-warnings value="true"/>
        <ignore-errors value="true"/>
        <no-step-log value="true"/>
    </report>

</configuration>
-->

<routes xmlns:xsi="http://www.w3.org/2001/XMLSchema-instance" xsi:noNamespaceSchemaLocation="http://sumo.dlr.de/xsd/routes_file.xsd">
    <vType id="ped_pedestrian" vClass="pedestrian"/>
    <person id="ped0" type="ped_pedestrian" depart="0.00">
        <walk edges="28869538#1 668307633#0 668307640#0 452252352#1 23781788 448792279#0 119238384#0 -125445934#0 -125445934#1"/>
    </person>
    <person id="ped1" type="ped_pedestrian" depart="2.77">
        <walk edges="119238385 28869538#1 668307633#0 668307640#0 452252352#0 668307639#1 5013517#0 237119282 205981089#2 -766633591"/>
    </person>
    <person id="ped3" type="ped_pedestrian" depart="8.32">
        <walk edges="69546524 255865983 69546523 27009359 308038298#0 669156737#0 723802758 119238380#2 119238380#1 778823270 -130848152#2"/>
    </person>
    <person id="ped4" type="ped_pedestrian" depart="11.09">
        <walk edges="22878052 902475336#2 23554761 308038298#0 669156737#0 723802758 119238380#2 669726790 232079775#4 130848151 28869538#0 28869538#1 668307633#0 668307640#0 452252352#0 668307639#1 5013517#0 237119282 125496883 -125496883"/>
    </person>
    <person id="ped5" type="ped_pedestrian" depart="13.87">
        <walk edges="-308038298#0 308038298#0 232079775#1 23647410#1"/>
    </person>
    <person id="ped6" type="ped_pedestrian" depart="16.64">
        <walk edges="-125445934#1 -125445934#0 119238384#1 44499684#0 668307641 668307642 543523320#1 -245021868#1"/>
    </person>
    <person id="ped7" type="ped_pedestrian" depart="19.41">
        <walk edges="308038298#0 669156737#0 723802758 119238380#2 669726790 232079775#4 130848151 28869538#0 28869538#1 668307633#0 668307640#0 452252352#0 668307639#1 5013517#0 237119282 237119283#0"/>
    </person>
    <person id="ped8" type="ped_pedestrian" depart="22.19">
        <walk edges="-308038298#0 308038298#0 669156737#0 723802758 -229193340#0 229193341 255865930 245021868#1"/>
    </person>
    <person id="ped9" type="ped_pedestrian" depart="24.96">
        <walk edges="668307633#3 668307633#2 668307633#0 28869538#1 -119238385"/>
    </person>
    <person id="ped10" type="ped_pedestrian" depart="27.73">
        <walk edges="668307633#2 668307640#0 452252352#1 23781788 448792279#0 119238384#0 119238384#1 44499684#0 44499684#2 44499684#3"/>
    </person>
    <person id="ped11" type="ped_pedestrian" depart="30.50">
        <walk edges="125496897#1 125496897#2 205981089#0 205981089#1 205981089#2 -237119282"/>
    </person>
    <person id="ped13" type="ped_pedestrian" depart="36.05">
        <walk edges="-205981089#0 -205981089#1"/>
    </person>
    <person id="ped14" type="ped_pedestrian" depart="38.82">
        <walk edges="668307641 130848152#2 778823270 119238380#1 119238380#2 -229193340#0 229193341 255865930"/>
    </person>
    <person id="ped15" type="ped_pedestrian" depart="41.60">
        <walk edges="668307633#2 668307633#0 28869538#1 28869538#0 130848151 448266584"/>
    </person>
    <person id="ped16" type="ped_pedestrian" depart="44.37">
        <walk edges="237119282 5013517#0 668307639#1 452252352#0 668307640#0 668307633#0 28869538#1 28869538#0 130848151 232079775#4 669726790 119238380#2 723802758 669156737#0 308038298#0 23554761 902475336#2 902475336#1"/>
    </person>
    <person id="ped17" type="ped_pedestrian" depart="47.14">
        <walk edges="182932595 668307633#2 668307640#0 452252352#0 668307639#1 5013517#0 237119282 237119283#0 237119283#1"/>
    </person>
    <person id="ped18" type="ped_pedestrian" depart="49.92">
        <walk edges="668307639#1 452252352#0 668307640#0 668307633#0 28869538#1 28869538#0 130848151 232079775#4 669726790 119238380#2 723802758 669156737#0 308038298#0 27009359 69546523 255865983 255865984"/>
    </person>
    <person id="ped19" type="ped_pedestrian" depart="52.69">
        <walk edges="669156737#0 723802758 119238380#2 119238380#1 778823270 130848152#2 668307641 44499684#0 119238384#1 119238384#0 448792279#0 23781788"/>
    </person>
    <person id="ped20" type="ped_pedestrian" depart="55.46">
        <walk edges="448266581#0 448266581#2 543523320#1 668307642 668307641 44499684#0 119238384#1 119238384#0 448792279#0 23781788 452252352#1 452252352#0 668307639#1 5013517#0 237119282 205981089#2 205981089#1 -125496894"/>
    </person>
    <person id="ped21" type="ped_pedestrian" depart="58.24">
        <walk edges="-766633591 205981089#2 237119282 5013517#0 668307639#1 452252352#0 452252352#1 23781788 448792279#0 119238384#0 125445934#0"/>
    </person>
    <person id="ped22" type="ped_pedestrian" depart="61.01">
        <walk edges="-130848152#1 668307641 44499684#0 119238384#1 119238384#0 448792279#0 23781788 452252352#1 452252352#0 668307639#1 5013517#0 -778823268#1"/>
    </person>
    <person id="ped23" type="ped_pedestrian" depart="63.78">
        <walk edges="-205981089#1 -205981089#2 237119282 5013517#0 668307639#1 452252352#0 668307640#0 668307633#0 28869538#1 119238385"/>
    </person>
    <person id="ped24" type="ped_pedestrian" depart="66.56">
        <walk edges="28869538#0 130848151 232079775#4 669726790 119238380#2 723802758 669156737#0 308038298#0 27009359 69546523 255865983 131471728#0"/>
    </person>
    <person id="ped25" type="ped_pedestrian" depart="69.33">
        <walk edges="131471728#0 -255865984"/>
    </person>
    <person id="ped26" type="ped_pedestrian" depart="72.10">
        <walk edges="119238384#1 119238384#0 448792279#0 23781788 452252352#1 452252352#0 668307639#1 5013517#0 778823268#0"/>
    </person>
    <person id="ped27" type="ped_pedestrian" depart="74.88">
        <walk edges="308038298#0 27009359 69546523 255865983"/>
    </person>
    <person id="ped28" type="ped_pedestrian" depart="77.65">
        <walk edges="-23770807 -125445934#0 119238384#1 44499684#0 668307641 130848152#2 778823270 119238380#0 448266584"/>
    </person>
    <person id="ped29" type="ped_pedestrian" depart="80.42">
        <walk edges="-237119283#1 237119283#0 237119282 5013517#0 668307639#1 452252352#0 668307640#0 668307633#2 182932595"/>
    </person>
    <person id="ped30" type="ped_pedestrian" depart="83.20">
        <walk edges="902475336#3 27009359 308038298#0 669156737#0 723802758 119238380#2 669726790 232079775#4 130848151 28869538#0 28869538#1"/>
    </person>
    <person id="ped31" type="ped_pedestrian" depart="85.97">
        <walk edges="23770807 44499684#2 44499684#0"/>
    </person>
    <person id="ped32" type="ped_pedestrian" depart="88.74">
        <walk edges="668307640#1 668307640#0 668307633#0 28869538#1 28869538#0 130848151 232079775#4 232079775#2 232079775#1 45665763#0"/>
    </person>
    <person id="ped33" type="ped_pedestrian" depart="91.51">
        <walk edges="-766633591 205981089#2 -125496883"/>
    </person>
    <person id="ped34" type="ped_pedestrian" depart="94.29">
        <walk edges="125496892 237119283#0 237119282 5013517#0 668307639#1 452252352#0 452252352#1 23781788 448792279#0 119238384#0 119238384#1"/>
    </person>
    <person id="ped35" type="ped_pedestrian" depart="97.06">
        <walk edges="-255865984 255865984 255865983 69546523 27009359 308038298#0 669156737#0 723802758 119238380#2 119238380#1 778823270"/>
    </person>
    <person id="ped36" type="ped_pedestrian" depart="99.83">
        <walk edges="69546522 902475336#0 69546523 27009359 308038298#0 669156737#0 723802758 119238380#2 669726790 232079775#4 130848151 28869538#0 28869538#1 668307633#0 668307640#0 452252352#0 668307639#1 5013517#0 237119282 237119283#0 125496892"/>
    </person>
    <person id="ped37" type="ped_pedestrian" depart="102.61">
        <walk edges="407982022#0 407982022#1 407982022#2 -23647432 23647410#1 232079775#2 232079775#4 130848151 28869538#0 28869538#1 668307633#0 668307640#0 452252352#0 668307639#1 5013517#0 237119282 205981089#2 205981089#1"/>
    </person>
    <person id="ped38" type="ped_pedestrian" depart="105.38">
        <walk edges="766633591 205981089#2 237119282 5013517#0 668307639#1 452252352#0 668307640#0 668307633#0 28869538#1 28869538#0 130848151 232079775#4 232079775#2 232079775#1"/>
    </person>
    <person id="ped39" type="ped_pedestrian" depart="108.15">
        <walk edges="119238384#0 119238384#1 44499684#0 668307641 130848152#2 778823270 119238380#1"/>
    </person>
    <person id="ped40" type="ped_pedestrian" depart="110.93">
        <walk edges="23770807 44499684#2 44499684#0 119238384#1 119238384#0"/>
    </person>
    <person id="ped41" type="ped_pedestrian" depart="113.70">
        <walk edges="245021868#0 448266581#2 543523320#1 668307642 130848152#2 778823270 119238380#1 669726790 232079775#2 23647410#1 23647410#0 70013953"/>
    </person>
    <person id="ped42" type="ped_pedestrian" depart="116.47">
        <walk edges="205981089#1 205981089#2 237119282 5013517#0 668307639#1 452252352#0 668307640#0 668307633#0 28869538#1 28869538#0 130848151 232079775#4 669726790 119238380#2 723802758 669156737#0 308038298#0 -308038298#0"/>
    </person>
    <person id="ped44" type="ped_pedestrian" depart="122.02">
        <walk edges="-205981089#0 -125496894"/>
    </person>
    <person id="ped45" type="ped_pedestrian" depart="124.79">
        <walk edges="-205981089#2 237119282 5013517#0 668307639#1 452252352#0 668307640#0 668307633#0 28869538#1 28869538#0 130848151 232079775#4 669726790 119238380#2 723802758 669156737#0 308038298#0 27009359"/>
    </person>
    <person id="ped46" type="ped_pedestrian" depart="127.57">
        <walk edges="543523320#1 668307642 130848152#2 778823270 119238380#1 119238380#2 723802758 669156737#0 308038298#0 23554761 902475336#2 22878052"/>
    </person>
    <person id="ped47" type="ped_pedestrian" depart="130.34">
        <walk edges="-125496897#1 -125496897#0 125445934#0 119238384#0 448792279#0 23781788 452252352#1 668307640#0 668307633#2 182932595"/>
    </person>
    <person id="ped49" type="ped_pedestrian" depart="135.89">
        <walk edges="902475336#1 902475336#2 23554761 308038298#0 669156737#0"/>
    </person>
    <person id="ped50" type="ped_pedestrian" depart="138.66">
        <walk edges="-125445875 125445875 255865984 255865983 69546523 27009359 308038298#0 669156737#0 723802758 119238380#2 119238380#1 778823270 130848152#2 668307641 44499684#0 119238384#1 119238384#0 448792279#0 448266583"/>
    </person>
    <person id="ped51" type="ped_pedestrian" depart="141.43">
        <walk edges="44499684#0 119238384#1 119238384#0 448792279#0 23781788 452252352#1 452252352#0 668307639#1 5013517#0 237119282"/>
    </person>
    <person id="ped52" type="ped_pedestrian" depart="144.20">
        <walk edges="119238384#1 119238384#0 448792279#0 23781788 452252352#1 668307640#0 668307633#0 28869538#1"/>
    </person>
    <person id="ped53" type="ped_pedestrian" depart="146.98">
        <walk edges="-209790457#0 308038298#0 669156737#0 723802758 -229193340#0 229193340#1"/>
    </person>
    <person id="ped55" type="ped_pedestrian" depart="152.52">
        <walk edges="69546522 902475336#0 69546523 27009359 308038298#0 669156737#0 723802758 119238380#2 119238380#1 778823270 130848152#2 668307641 44499684#0 119238384#1 119238384#0"/>
    </person>
    <person id="ped56" type="ped_pedestrian" depart="155.30">
        <walk edges="23647410#0 23647410#1 232079775#2 669726790 119238380#1 778823270 130848152#2 668307641 44499684#0 119238384#1 -125445934#0 125496897#0 125496897#1 -23770815"/>
    </person>
    <person id="ped57" type="ped_pedestrian" depart="158.07">
        <walk edges="766633591 205981089#2 237119282 5013517#0 668307639#1 452252352#0 668307640#0 668307633#0 28869538#1 28869538#0 130848151 232079775#4 669726790"/>
    </person>
    <person id="ped58" type="ped_pedestrian" depart="160.84">
        <walk edges="125445934#1 125445934#0 119238384#0 448792279#0 23781788 452252352#1 668307640#0 668307633#0 28869538#1"/>
    </person>
    <person id="ped59" type="ped_pedestrian" depart="163.62">
        <walk edges="255865983 69546523 27009359 308038298#0 669156737#0 723802758 119238380#2 669726790 232079775#4 130848151 28869538#0 28869538#1 668307633#0 668307640#0 452252352#0 668307639#1 5013517#0 -237119282"/>
    </person>
    <person id="ped60" type="ped_pedestrian" depart="166.39">
        <walk edges="452252352#0 668307639#1 5013517#0 237119282"/>
    </person>
    <person id="ped61" type="ped_pedestrian" depart="169.16">
        <walk edges="5013517#0 668307639#1 452252352#0 668307640#0 668307633#0 28869538#1 28869538#0 130848151 232079775#4 232079775#2 23647410#1 -23647432 407982022#2 23647457"/>
    </person>
    <person id="ped62" type="ped_pedestrian" depart="171.94">
        <walk edges="-119238385 28869538#1 668307633#0 668307640#0 452252352#0 668307639#1 5013517#0 237119282 205981089#2 205981089#1 125496894"/>
    </person>
    <person id="ped63" type="ped_pedestrian" depart="174.71">
        <walk edges="-125445934#0 119238384#0 448792279#0 23781788 452252352#1 452252352#0 668307639#1 5013517#0 778823268#0 778823267"/>
    </person>
    <person id="ped64" type="ped_pedestrian" depart="177.48">
        <walk edges="69546522 902475336#0 69546523 27009359 308038298#0 669156737#0 723802758 119238380#2 669726790 232079775#4 130848151 28869538#0 28869538#1 668307633#0 668307640#0"/>
    </person>
    <person id="ped65" type="ped_pedestrian" depart="180.26">
        <walk edges="125496883 -205981089#2 -205981089#1 -205981089#0 -125496897#2 -125496897#1 -125496897#0"/>
    </person>
    <person id="ped66" type="ped_pedestrian" depart="183.03">
        <walk edges="69546522 902475336#0 69546523 27009359 308038298#0 669156737#0 723802758 119238380#2 119238380#1 778823270"/>
    </person>
    <person id="ped67" type="ped_pedestrian" depart="185.80">
        <walk edges="-130848152#2 778823270 119238380#1 119238380#2 723802758 669156737#0 232188959"/>
    </person>
    <person id="ped68" type="ped_pedestrian" depart="188.58">
        <walk edges="-125496897#2 125496897#1 125496897#0 125445934#0 119238384#0 448792279#0 23781788 452252352#1 452252352#0"/>
    </person>
    <person id="ped69" type="ped_pedestrian" depart="191.35">
        <walk edges="452252352#1 668307640#0 668307633#0 28869538#1 28869538#0 130848151 232079775#4 669726790 119238380#2 -229193340#0 -229193340#1"/>
    </person>
    <person id="ped70" type="ped_pedestrian" depart="194.12">
        <walk edges="232079825#2 669156737#0 723802758 119238380#2 669726790 232079775#4 130848151 28869538#0 28869538#1 668307633#0 668307640#0 452252352#0 668307639#1 5013517#0 237119282 237119283#0 237119283#1"/>
    </person>
    <person id="ped71" type="ped_pedestrian" depart="196.90">
        <walk edges="119238384#0 119238384#1 44499684#0 668307641 130848152#2 778823270 119238380#1 669726790"/>
    </person>
    <person id="ped72" type="ped_pedestrian" depart="199.67">
        <walk edges="229193247 723802758 669156737#0 308038298#0 27009359 69546523 255865983 255865984 -255865984"/>
    </person>
    <person id="ped73" type="ped_pedestrian" depart="202.44">
        <walk edges="237119282 5013517#0 668307639#1 452252352#0 668307640#0 668307633#0 28869538#1 28869538#0 130848151 448266584"/>
    </person>
    <person id="ped74" type="ped_pedestrian" depart="205.21">
        <walk edges="-252858180 125496897#1 125496897#2 205981089#0 205981089#1 205981089#2 237119283#0 125496892"/>
    </person>
    <person id="ped76" type="ped_pedestrian" depart="210.76">
        <walk edges="229193341 -229193340#0 723802758 669156737#0 407982022#3 407982022#2 407982022#1 23647420"/>
    </person>
    <person id="ped77" type="ped_pedestrian" depart="213.53">
        <walk edges="-229193340#0 119238380#2 669726790 232079775#4 130848151 28869538#0 28869538#1 668307633#0 668307640#0 452252352#0 668307639#1 5013517#0 237119282 205981089#2 -766633591"/>
    </person>
    <person id="ped78" type="ped_pedestrian" depart="216.31">
        <walk edges="125496897#1 125496897#0 -125445934#0 119238384#1 44499684#0 668307641 668307642 543523320#1 245021868#1"/>
    </person>
    <person id="ped79" type="ped_pedestrian" depart="219.08">
        <walk edges="-778823268#1 5013517#0 668307639#1 452252352#0 668307640#0 668307633#0 28869538#1 28869538#0 130848151 232079775#4 669726790 119238380#2 723802758 669156737#0 308038298#0 -308038298#0"/>
    </person>
    <person id="ped80" type="ped_pedestrian" depart="221.85">
        <walk edges="-125496897#2 125496897#1 125496897#0 -125445934#0 119238384#1 44499684#0 668307641 130848152#2 778823270 119238380#0 448266584 130848151 28869538#0"/>
    </person>
    <person id="ped81" type="ped_pedestrian" depart="224.63">
        <walk edges="-766633591 205981089#2 237119282 5013517#0 668307639#1 452252352#0 668307640#0 668307633#0 28869538#1 28869538#0 130848151 232079775#4 669726790 119238380#2 723802758"/>
    </person>
    <person id="ped82" type="ped_pedestrian" depart="227.40">
        <walk edges="669156737#0 723802758 119238380#2 119238380#1 778823270 130848152#2 668307641 44499684#0 119238384#1 -125445934#0 125496897#0 125496897#1 -125496897#2"/>
    </person>
    <person id="ped83" type="ped_pedestrian" depart="230.17">
        <walk edges="119238380#0 448266584 232079775#4 232079775#2 23647410#1 -23647432 407982022#2"/>
    </person>
    <person id="ped84" type="ped_pedestrian" depart="232.95">
        <walk edges="-255865984 255865984 255865983 69546523 27009359 308038298#0 669156737#0 723802758 -229193340#0 -229193340#1"/>
    </person>
    <person id="ped85" type="ped_pedestrian" depart="235.72">
        <walk edges="778823268#0 5013517#0 668307639#1 452252352#0 452252352#1 23781788"/>
    </person>
    <person id="ped86" type="ped_pedestrian" depart="238.49">
        <walk edges="232079775#4 130848151 28869538#0 28869538#1 668307633#0 668307640#0 452252352#0 668307639#1 5013517#0"/>
    </person>
    <person id="ped87" type="ped_pedestrian" depart="241.27">
        <walk edges="668307633#3 668307633#2 668307633#0 28869538#1 28869538#0 130848151 448266584 119238380#0 778823270 130848152#2 668307642 543523320#1 -245021868#1 -245021868#0"/>
    </person>
    <person id="ped88" type="ped_pedestrian" depart="244.04">
        <walk edges="-205981089#1 -205981089#2 237119282 5013517#0 668307639#1 452252352#0 668307640#0 668307633#0 28869538#1 28869538#0 130848151 232079775#4 669726790 119238380#2 -229193340#0 229193340#1"/>
    </person>
    <person id="ped89" type="ped_pedestrian" depart="246.81">
        <walk edges="229193247 119238380#2 669726790 232079775#4"/>
    </person>
    <person id="ped90" type="ped_pedestrian" depart="249.59">
        <walk edges="448266584 232079775#4 232079775#2 23647410#1 -23647432 407982022#2"/>
    </person>
    <person id="ped91" type="ped_pedestrian" depart="252.36">
        <walk edges="902475336#2 23554761 308038298#0 669156737#0 723802758 119238380#2 669726790 232079775#4 130848151 28869538#0 28869538#1 668307633#0 668307640#0 452252352#0 668307639#1 5013517#0 237119282 -205981089#2 -205981089#1"/>
    </person>
    <person id="ped92" type="ped_pedestrian" depart="255.13">
        <walk edges="205981089#2 205981089#1 205981089#0 125496897#2 125496897#1"/>
    </person>
    <person id="ped93" type="ped_pedestrian" depart="257.91">
        <walk edges="669156737#0 723802758 119238380#2 119238380#1"/>
    </person>
    <person id="ped94" type="ped_pedestrian" depart="260.68">
        <walk edges="-245021868#0 -245021868#1 543523320#1 668307642 668307641 44499684#0 119238384#1 119238384#0 448792279#0 23781788 452252352#1 452252352#0 668307639#1 5013517#0 231435896"/>
    </person>
    <person id="ped95" type="ped_pedestrian" depart="263.45">
        <walk edges="22878052 902475336#2 23554761 308038298#0 669156737#0 723802758 119238380#2 669726790 232079775#4 130848151 28869538#0 119238385"/>
    </person>
    <person id="ped96" type="ped_pedestrian" depart="266.22">
        <walk edges="119238380#1 119238380#0 448266584 130848151 28869538#0 28869538#1 668307633#0 668307640#0 452252352#0 668307639#1 5013517#0 778823268#0 778823266"/>
    </person>
    <person id="ped97" type="ped_pedestrian" depart="269.00">
        <walk edges="229193341 -229193340#0 723802758 669156737#0"/>
    </person>
    <person id="ped98" type="ped_pedestrian" depart="271.77">
        <walk edges="237119283#1 237119283#0 205981089#2 205981089#1 -125496894"/>
    </person>
    <person id="ped100" type="ped_pedestrian" depart="277.32">
        <walk edges="902475336#0 69546523 27009359 308038298#0 669156737#0 723802758 119238380#2 669726790 232079775#4 130848151 28869538#0 28869538#1 668307633#0 668307640#0 452252352#0 668307639#1 5013517#0 778823268#0 778823267"/>
    </person>
    <person id="ped101" type="ped_pedestrian" depart="280.09">
        <walk edges="668307641 44499684#0 119238384#1 119238384#0 448792279#0 23781788 452252352#1 452252352#0 668307639#1 5013517#0 237119282 237119283#0 -237119283#1"/>
    </person>
    <person id="ped102" type="ped_pedestrian" depart="282.86">
        <walk edges="232188959 27009359 69546523 255865983 255865984 -255865984"/>
    </person>
    <person id="ped103" type="ped_pedestrian" depart="285.64">
        <walk edges="205981089#2 205981089#1 205981089#0 125496897#2 -125496897#1 -125496897#0"/>
    </person>
    <person id="ped104" type="ped_pedestrian" depart="288.41">
        <walk edges="182932595 668307633#2 668307633#0 28869538#1 28869538#0 130848151 232079775#4 669726790 119238380#2 723802758 669156737#0 308038298#0 27009359 902475336#3"/>
    </person>
    <person id="ped105" type="ped_pedestrian" depart="291.18">
        <walk edges="119238384#0 448792279#0 23781788 452252352#1 452252352#0 668307639#1 5013517#0"/>
    </person>
    <person id="ped106" type="ped_pedestrian" depart="293.96">
        <walk edges="232079775#1 669156737#0 723802758 229193247"/>
    </person>
    <person id="ped108" type="ped_pedestrian" depart="299.50">
        <walk edges="23770807 44499684#2 668307641 668307642 543523320#1 448266581#2"/>
    </person>
    <person id="ped109" type="ped_pedestrian" depart="302.28">
        <walk edges="-237119282 205981089#2 205981089#1 205981089#0 125496897#2 -125496897#1 -125496897#0 125445934#1"/>
    </person>
    <person id="ped110" type="ped_pedestrian" depart="305.05">
        <walk edges="902475336#0 69546523 27009359 308038298#0 669156737#0 723802758 119238380#2 119238380#1 778823270 130848152#2 668307642 543523320#1 448266581#2 245021868#0"/>
    </person>
    <person id="ped111" type="ped_pedestrian" depart="307.82">
        <walk edges="237119283#0 237119282 5013517#0 668307639#1 452252352#0 668307640#0 668307633#0 28869538#1 28869538#0 130848151 448266584 448266586"/>
    </person>
    <person id="ped112" type="ped_pedestrian" depart="310.60">
        <walk edges="-125496897#0 -125445934#0 119238384#1 44499684#0 668307641 668307642 543523320#1 448266581#2 245021868#0"/>
    </person>
    <person id="ped113" type="ped_pedestrian" depart="313.37">
        <walk edges="23647410#0 23647410#1 232079775#2 669726790 119238380#1 778823270 130848152#2 668307642"/>
    </person>
    <person id="ped115" type="ped_pedestrian" depart="318.91">
        <walk edges="-130848152#1 668307642 543523320#1 -245021868#1 -245021868#0"/>
    </person>
    <person id="ped116" type="ped_pedestrian" depart="321.69">
        <walk edges="252858180 -252858180 125496897#0 -125445934#0 119238384#1 44499684#0 668307641 130848152#2 778823270 119238380#1 119238380#2 723802758 669156737#0 407982022#3"/>
    </person>
    <person id="ped117" type="ped_pedestrian" depart="324.46">
        <walk edges="-778823268#1 5013517#0 668307639#1 452252352#0 668307640#0 668307633#0 28869538#1 28869538#0 130848151 232079775#4 669726790 119238380#2 -229193340#0"/>
    </person>
    <person id="ped118" type="ped_pedestrian" depart="327.23">
        <walk edges="69546524 255865983 69546523 27009359 308038298#0 669156737#0 723802758 119238380#2 119238380#1"/>
    </person>
    <person id="ped119" type="ped_pedestrian" depart="330.01">
        <walk edges="252858180 -252858180 125496897#0 -125445934#0 119238384#1 44499684#0 668307641 130848152#2 778823270 119238380#1 119238380#2 723802758 669156737#0 308038298#0 27009359 69546523 255865983 255865984"/>
    </person>
    <person id="ped120" type="ped_pedestrian" depart="332.78">
        <walk edges="22878052 902475336#2 23554761 308038298#0 669156737#0 723802758 119238380#2 119238380#1 778823270 130848152#2 668307642 543523320#1 448266581#2 245021868#0"/>
    </person>
    <person id="ped121" type="ped_pedestrian" depart="335.55">
        <walk edges="23647432 23647410#1 232079775#2 232079775#4 130848151 28869538#0 28869538#1 668307633#0 668307640#0 452252352#0 668307639#1 5013517#0 778823268#0"/>
    </person>
    <person id="ped122" type="ped_pedestrian" depart="338.33">
        <walk edges="-252858180 125496897#0 -125445934#0 119238384#1 44499684#0 668307641 668307642 543523320#1 448266581#2"/>
    </person>
    <person id="ped123" type="ped_pedestrian" depart="341.10">
        <walk edges="119238380#0 448266584 130848151 28869538#0 28869538#1 668307633#0 668307640#0 452252352#0 668307639#1 5013517#0 237119282 205981089#2 205981089#1"/>
    </person>
    <person id="ped124" type="ped_pedestrian" depart="343.87">
        <walk edges="407982022#2 -23647432 23647410#1 232079775#2 669726790 119238380#1 778823270 130848152#2 668307641 44499684#0 119238384#1 -125445934#0 125445934#1"/>
    </person>
    <person id="ped125" type="ped_pedestrian" depart="346.65">
        <walk edges="125496892 237119283#0 237119282 5013517#0 668307639#1 452252352#0 452252352#1 23781788 448792279#0"/>
    </person>
    <person id="ped126" type="ped_pedestrian" depart="349.42">
        <walk edges="-125496897#2 125496897#1 125496897#0 -125445934#0 119238384#1 44499684#0 668307641 130848152#2 778823270 119238380#1 669726790 232079775#2 232079775#1"/>
    </person>
    <person id="ped127" type="ped_pedestrian" depart="352.19">
        <walk edges="942676266"/>
    </person>
    <person id="ped128" type="ped_pedestrian" depart="354.97">
        <walk edges="-125496897#2 125496897#1 125496897#0 -125445934#0 119238384#1 44499684#0 668307641 130848152#2 778823270 119238380#1 119238380#2 723802758 669156737#0 308038298#0 27009359 69546523 255865983 255865984 -255865984"/>
    </person>
    <person id="ped129" type="ped_pedestrian" depart="357.74">
        <walk edges="119238384#0 448792279#0 23781788 452252352#1 452252352#0 668307639#1 5013517#0 778823268#0 778823267"/>
    </person>
    <person id="ped130" type="ped_pedestrian" depart="360.51">
        <walk edges="69546522"/>
    </person>
    <person id="ped131" type="ped_pedestrian" depart="363.29">
        <walk edges="131471728#0 255865983 69546523 27009359 308038298#0 669156737#0 723802758 119238380#2 669726790 232079775#4 130848151 28869538#0 28869538#1 668307633#0 668307640#0 452252352#0 668307639#1 5013517#0 237119282 237119283#0 -237119283#0"/>
    </person>
    <person id="ped132" type="ped_pedestrian" depart="366.06">
        <walk edges="668307640#0 452252352#1 23781788 448792279#0 119238384#0 119238384#1 44499684#0 44499684#2 44499684#3"/>
    </person>
    <person id="ped133" type="ped_pedestrian" depart="368.83">
        <walk edges="255865983 69546523 902475336#3"/>
    </person>
    <person id="ped134" type="ped_pedestrian" depart="371.61">
        <walk edges="407982022#0 407982022#1 407982022#2 407982022#3 308038298#0 27009359 69546523 255865983 255865984 125445875 -125445875"/>
    </person>
    <person id="ped136" type="ped_pedestrian" depart="377.15">
        <walk edges="407982022#1 407982022#2 -23647432 23647410#1 232079775#2 232079775#4 130848151 28869538#0 28869538#1 668307633#0 668307640#0 452252352#0 668307639#1 5013517#0 778823268#0"/>
    </person>
    <person id="ped137" type="ped_pedestrian" depart="379.92">
        <walk edges="-231435896 5013517#0 668307639#1 452252352#0 668307640#0 668307633#0 28869538#1 28869538#0 130848151 232079775#4 669726790 119238380#2 723802758 669156737#0 308038298#0 -209790457#0"/>
    </person>
    <person id="ped138" type="ped_pedestrian" depart="382.70">
        <walk edges="-205981089#2 237119283#0 237119283#1"/>
    </person>
    <person id="ped139" type="ped_pedestrian" depart="385.47">
        <walk edges="119238384#1 44499684#0 668307641 130848152#2 778823270 119238380#1 119238380#2 -229193340#0 229193341 255865930"/>
    </person>
    <person id="ped140" type="ped_pedestrian" depart="388.24">
        <walk edges="448266581#2 543523320#1 668307642 668307641 44499684#0 119238384#1 -125445934#0 125496897#0 -252858180"/>
    </person>
    <person id="ped141" type="ped_pedestrian" depart="391.02">
        <walk edges="28869538#0 28869538#1 668307633#0 668307640#0 452252352#1 23781788 448792279#0 119238384#0"/>
    </person>
    <person id="ped142" type="ped_pedestrian" depart="393.79">
        <walk edges="232188959 669156737#0 723802758"/>
    </person>
    <person id="ped143" type="ped_pedestrian" depart="396.56">